5
Lattice="42.896783045460808 0.0000000000000000 0.0000000000000000 0.0000000000000000 42.896783045460808 0.0000000000000000 0.0000000000000000 0.0000000000000000 21.448391522730404" Properties=species:S:1:pos:R:3:dipoles:R:3
Fe 0.0000000000000000 0.0000000000000000 0.0000000000000000 0.0000000000000000 0.0000000000000000 3.0114463622488290
Fe 0.0000000000000000 0.0000000000000000 2.2700000000000000 0.0000000000000000 0.0000000000000000 3.2325758834687712
Fe 0.0000000000000000 0.0000000000000000 4.5400000000000000 0.0000000000000000 0.0000000000000000 3.1967548448809975
Fe 0.0000000000000000 0.0000000000000000 6.8100000000000005 0.0000000000000000 0.0000000000000000 3.1966170680025323
Fe 0.0000000000000000 0.0000000000000000 9.0800000000000001 0.0000000000000000 0.0000000000000000 3.2326160409036242
