5
Lattice="42.896783045460808 0.0000000000000000 0.0000000000000000 0.0000000000000000 42.896783045460808 0.0000000000000000 0.0000000000000000 0.0000000000000000 21.448391522730404" Properties=species:S:1:pos:R:3:dipoles:R:3
Fe 0.0000000000000000 0.0000000000000000 0.0000000000000000 0.0000000000000000 0.0000000000000000 2.9888613524725116
Fe 0.0000000000000000 0.0000000000000000 2.2700000000000000 0.0000000000000000 0.0000000000000000 3.2469602152476149
Fe 0.0000000000000000 0.0000000000000000 4.5400000000000000 0.0000000000000000 0.0000000000000000 3.1875974702909304
Fe 0.0000000000000000 0.0000000000000000 6.8100000000000005 0.0000000000000000 0.0000000000000000 3.1875891903616935
Fe 0.0000000000000000 0.0000000000000000 9.0800000000000001 0.0000000000000000 0.0000000000000000 3.2469261610695184
