2
Lattice="4.7243153133767404 0.0000000000000000 0.0000000000000000 0.0000000000000000 4.7243153133767404 0.0000000000000000 0.0000000000000000 0.0000000000000000 4.7243153133767404" Properties=species:S:1:pos:R:3:dipoles:R:3
Fe -1.2500000000000000 0.0000000000000000 0.0000000000000000 -0.17547789516012671 0.54568800244728732 3.1279117814118815
Fe 1.2500000000000000 0.0000000000000000 0.0000000000000000 0.17235505463561795 -0.54359031974222749 3.1284506228201958
