2
Lattice="4.7243153133767404 0.0000000000000000 0.0000000000000000 0.0000000000000000 4.7243153133767404 0.0000000000000000 0.0000000000000000 0.0000000000000000 4.7243153133767404" Properties=species:S:1:pos:R:3:dipoles:R:3
Fe -1.2500000000000000 0.0000000000000000 0.0000000000000000 0.60894503082486273 -0.25557852922985025 3.1106696328653136
Fe 1.2500000000000000 0.0000000000000000 0.0000000000000000 -0.60755626443453759 0.26199374240718848 3.1104074756349505
