2
Lattice="4.7243153133767404 0.0000000000000000 0.0000000000000000 0.0000000000000000 4.7243153133767404 0.0000000000000000 0.0000000000000000 0.0000000000000000 4.7243153133767404" Properties=species:S:1:pos:R:3:dipoles:R:3
Fe -1.2500000000000000 0.0000000000000000 0.0000000000000000 0.37866913473387809 -0.45166139502365876 3.1249018657623711
Fe 1.2500000000000000 0.0000000000000000 0.0000000000000000 -0.37613672409565507 0.45687182034376794 3.1244502403722723
