2
Lattice="4.7243153133767404 0.0000000000000000 0.0000000000000000 0.0000000000000000 4.7243153133767404 0.0000000000000000 0.0000000000000000 0.0000000000000000 4.7243153133767404" Properties=species:S:1:pos:R:3:dipoles:R:3
Fe -1.2500000000000000 0.0000000000000000 0.0000000000000000 -1.3334174025022860E-002 -0.55298669551263890 3.1315216611719419
Fe 1.2500000000000000 0.0000000000000000 0.0000000000000000 1.6478662045582033E-002 0.55603084557270654 3.1309676064227956
