2
Lattice="4.7243153133767404 0.0000000000000000 0.0000000000000000 0.0000000000000000 4.7243153133767404 0.0000000000000000 0.0000000000000000 0.0000000000000000 4.7243153133767404" Properties=species:S:1:pos:R:3:dipoles:R:3
Fe -1.2500000000000000 0.0000000000000000 0.0000000000000000 0.29873292297917864 0.52123783182298211 3.1227343408309274
Fe 1.2500000000000000 0.0000000000000000 0.0000000000000000 -0.30171280455638277 -0.51650996274021699 3.1232333953703812
