2
Lattice="4.7243153133767404 0.0000000000000000 0.0000000000000000 0.0000000000000000 4.7243153133767404 0.0000000000000000 0.0000000000000000 0.0000000000000000 4.7243153133767404" Properties=species:S:1:pos:R:3:dipoles:R:3
Fe -1.2500000000000000 0.0000000000000000 0.0000000000000000 0.51200717927225137 -0.23528280511375399 3.1296790011104121
Fe 1.2500000000000000 0.0000000000000000 0.0000000000000000 -0.51069845664578306 0.24125484439715211 3.1294381582697097
