2
Lattice="4.7243153133767404 0.0000000000000000 0.0000000000000000 0.0000000000000000 4.7243153133767404 0.0000000000000000 0.0000000000000000 0.0000000000000000 4.7243153133767404" Properties=species:S:1:pos:R:3:dipoles:R:3
Fe -1.2500000000000000 0.0000000000000000 0.0000000000000000 0.69735354937309069 5.9205078614521775E-002 3.1020304295482037
Fe 1.2500000000000000 0.0000000000000000 0.0000000000000000 -0.69772400535944346 -5.2358670281446348E-002 3.1020702413052352
