2
Lattice="4.7243153133767404 0.0000000000000000 0.0000000000000000 0.0000000000000000 4.7243153133767404 0.0000000000000000 0.0000000000000000 0.0000000000000000 4.7243153133767404" Properties=species:S:1:pos:R:3:dipoles:R:3
Fe -1.2500000000000000 0.0000000000000000 0.0000000000000000 0.33452593402328801 0.57701379240995720 3.1092679979111724
Fe 1.2500000000000000 0.0000000000000000 0.0000000000000000 -0.33776737802638873 -0.57213310538229623 3.1098194333540876
