2
Lattice="4.7243153133767404 0.0000000000000000 0.0000000000000000 0.0000000000000000 4.7243153133767404 0.0000000000000000 0.0000000000000000 0.0000000000000000 4.7243153133767404" Properties=species:S:1:pos:R:3:dipoles:R:3
Fe -1.2500000000000000 0.0000000000000000 0.0000000000000000 0.22403179866825279 -0.50896187940523330 3.1310010473485548
Fe 1.2500000000000000 0.0000000000000000 0.0000000000000000 -0.22114816708439589 0.51333262274982816 3.1304924703017560
