2
Lattice="4.7243153133767404 0.0000000000000000 0.0000000000000000 0.0000000000000000 4.7243153133767404 0.0000000000000000 0.0000000000000000 0.0000000000000000 4.7243153133767404" Properties=species:S:1:pos:R:3:dipoles:R:3
Fe -1.2500000000000000 0.0000000000000000 0.0000000000000000 -0.25989171806211941 0.61923005527911601 3.1082809450758750
Fe 1.2500000000000000 0.0000000000000000 0.0000000000000000 0.25643963634473954 -0.61758928273152680 3.1088940462432122
