2
Lattice="4.7243153133767404 0.0000000000000000 0.0000000000000000 0.0000000000000000 4.7243153133767404 0.0000000000000000 0.0000000000000000 0.0000000000000000 4.7243153133767404" Properties=species:S:1:pos:R:3:dipoles:R:3
Fe -1.2500000000000000 0.0000000000000000 0.0000000000000000 0.14723738538753475 -0.53500225241762700 3.1312128228934388
Fe 1.2500000000000000 0.0000000000000000 0.0000000000000000 -0.14420201603815419 0.53894430561874329 3.1306780118708564
