2
Lattice="4.7243153133767404 0.0000000000000000 0.0000000000000000 0.0000000000000000 4.7243153133767404 0.0000000000000000 0.0000000000000000 0.0000000000000000 4.7243153133767404" Properties=species:S:1:pos:R:3:dipoles:R:3
Fe -1.2500000000000000 0.0000000000000000 0.0000000000000000 -0.20183060419505952 0.53688136667253661 3.1278463525771332
Fe 1.2500000000000000 0.0000000000000000 0.0000000000000000 0.19875896485426134 -0.53493045480273582 3.1283772602444508
