2
Lattice="4.7243153133767404 0.0000000000000000 0.0000000000000000 0.0000000000000000 4.7243153133767404 0.0000000000000000 0.0000000000000000 0.0000000000000000 4.7243153133767404" Properties=species:S:1:pos:R:3:dipoles:R:3
Fe -1.2500000000000000 0.0000000000000000 0.0000000000000000 0.68319119744379198 -0.14083093397495158 3.1025499892461159
Fe 1.2500000000000000 0.0000000000000000 0.0000000000000000 -0.68245492743643110 0.14760913186444224 3.1023969469118473
