2
Lattice="4.7243153133767404 0.0000000000000000 0.0000000000000000 0.0000000000000000 4.7243153133767404 0.0000000000000000 0.0000000000000000 0.0000000000000000 4.7243153133767404" Properties=species:S:1:pos:R:3:dipoles:R:3
Fe -1.2500000000000000 0.0000000000000000 0.0000000000000000 0.52315015811453591 -0.21059892434833319 3.1295945432480630
Fe 1.2500000000000000 0.0000000000000000 0.0000000000000000 -0.52198296615272355 0.21663239071824805 3.1293776043069799
