2
Lattice="4.7243153133767404 0.0000000000000000 0.0000000000000000 0.0000000000000000 4.7243153133767404 0.0000000000000000 0.0000000000000000 0.0000000000000000 4.7243153133767404" Properties=species:S:1:pos:R:3:dipoles:R:3
Fe -1.2500000000000000 0.0000000000000000 0.0000000000000000 -0.45915643440377474 -0.35894293048304754 3.1261374476183592
Fe 1.2500000000000000 0.0000000000000000 0.0000000000000000 0.46119446416218268 0.35949025644402310 3.1257745314958276
