2
Lattice="4.7243153133767404 0.0000000000000000 0.0000000000000000 0.0000000000000000 4.7243153133767404 0.0000000000000000 0.0000000000000000 0.0000000000000000 4.7243153133767404" Properties=species:S:1:pos:R:3:dipoles:R:3
Fe -1.2500000000000000 0.0000000000000000 0.0000000000000000 -0.67169083177836819 -0.11854720372309531 3.1059906611247778
Fe 1.2500000000000000 0.0000000000000000 0.0000000000000000 0.67235119796250475 0.11797112996899037 3.1058697137987283
