2
Lattice="4.7243153133767404 0.0000000000000000 0.0000000000000000 0.0000000000000000 4.7243153133767404 0.0000000000000000 0.0000000000000000 0.0000000000000000 4.7243153133767404" Properties=species:S:1:pos:R:3:dipoles:R:3
Fe -1.2500000000000000 0.0000000000000000 0.0000000000000000 0.12091663132549993 -0.54119610824770592 3.1312754495071848
Fe 1.2500000000000000 0.0000000000000000 0.0000000000000000 -0.11784484735214441 0.54499112310277242 3.1307343016761622
