2
Lattice="4.7243153133767404 0.0000000000000000 0.0000000000000000 0.0000000000000000 4.7243153133767404 0.0000000000000000 0.0000000000000000 0.0000000000000000 4.7243153133767404" Properties=species:S:1:pos:R:3:dipoles:R:3
Fe -1.2500000000000000 0.0000000000000000 0.0000000000000000 0.69400047436111978 9.2623194413576346E-002 3.1019645848144655
Fe 1.2500000000000000 0.0000000000000000 0.0000000000000000 -0.69455553931585701 -8.5796463429865633E-002 3.1020366809031410
