2
Lattice="4.7243153133767404 0.0000000000000000 0.0000000000000000 0.0000000000000000 4.7243153133767404 0.0000000000000000 0.0000000000000000 0.0000000000000000 4.7243153133767404" Properties=species:S:1:pos:R:3:dipoles:R:3
Fe -1.2500000000000000 0.0000000000000000 0.0000000000000000 0.63145247961414441 0.21096354070831980 3.1095276410543411
Fe 1.2500000000000000 0.0000000000000000 0.0000000000000000 -0.63266781335731748 -0.20444470611518245 3.1097160320651627
