2
Lattice="4.7243153133767404 0.0000000000000000 0.0000000000000000 0.0000000000000000 4.7243153133767404 0.0000000000000000 0.0000000000000000 0.0000000000000000 4.7243153133767404" Properties=species:S:1:pos:R:3:dipoles:R:3
Fe -1.2500000000000000 0.0000000000000000 0.0000000000000000 -0.64789853511861339 -0.21385581258225894 3.1059448127125426
Fe 1.2500000000000000 0.0000000000000000 0.0000000000000000 0.64908724293562448 0.21341348852138611 3.1057270379051887
