2
Lattice="4.7243153133767404 0.0000000000000000 0.0000000000000000 0.0000000000000000 4.7243153133767404 0.0000000000000000 0.0000000000000000 0.0000000000000000 4.7243153133767404" Properties=species:S:1:pos:R:3:dipoles:R:3
Fe -1.2500000000000000 0.0000000000000000 0.0000000000000000 -0.18856573101003801 0.60818710530725928 3.1155980822350360
Fe 1.2500000000000000 0.0000000000000000 0.0000000000000000 0.18514150833563142 -0.60616034931049789 3.1161983654470631
