2
Lattice="4.7243153133767404 0.0000000000000000 0.0000000000000000 0.0000000000000000 4.7243153133767404 0.0000000000000000 0.0000000000000000 0.0000000000000000 4.7243153133767404" Properties=species:S:1:pos:R:3:dipoles:R:3
Fe -1.2500000000000000 0.0000000000000000 0.0000000000000000 0.62871603075650828 -3.7580637487353165E-002 3.1170023818335189
Fe 1.2500000000000000 0.0000000000000000 0.0000000000000000 -0.62854355285543273 4.4132057429876290E-002 3.1169512931181425
