2
Lattice="4.7243153133767404 0.0000000000000000 0.0000000000000000 0.0000000000000000 4.7243153133767404 0.0000000000000000 0.0000000000000000 0.0000000000000000 4.7243153133767404" Properties=species:S:1:pos:R:3:dipoles:R:3
Fe -1.2500000000000000 0.0000000000000000 0.0000000000000000 -0.56146496607508833 0.37874690779256176 3.1070416591523027
Fe 1.2500000000000000 0.0000000000000000 0.0000000000000000 0.55935920275605933 -0.37874052107371142 3.1074222275044763
