2
Lattice="4.7243153133767404 0.0000000000000000 0.0000000000000000 0.0000000000000000 4.7243153133767404 0.0000000000000000 0.0000000000000000 0.0000000000000000 4.7243153133767404" Properties=species:S:1:pos:R:3:dipoles:R:3
Fe -1.2500000000000000 0.0000000000000000 0.0000000000000000 -0.35807198369223076 -0.42054230866983999 3.1316654708179410
Fe 1.2500000000000000 0.0000000000000000 0.0000000000000000 0.36047331417445977 0.42164954056788556 3.1312410725951731
