2
Lattice="4.7243153133767404 0.0000000000000000 0.0000000000000000 0.0000000000000000 4.7243153133767404 0.0000000000000000 0.0000000000000000 0.0000000000000000 4.7243153133767404" Properties=species:S:1:pos:R:3:dipoles:R:3
Fe -1.2500000000000000 0.0000000000000000 0.0000000000000000 7.9546516761898389E-002 0.59645841845970105 3.1225485915706055
Fe 1.2500000000000000 0.0000000000000000 0.0000000000000000 -8.2942688206779538E-002 -0.59294860550532114 3.1231286335503867
