2
Lattice="4.7243153133767404 0.0000000000000000 0.0000000000000000 0.0000000000000000 4.7243153133767404 0.0000000000000000 0.0000000000000000 0.0000000000000000 4.7243153133767404" Properties=species:S:1:pos:R:3:dipoles:R:3
Fe -1.2500000000000000 0.0000000000000000 0.0000000000000000 0.53591284098357905 -0.43785909878680540 3.1037842767303472
Fe 1.2500000000000000 0.0000000000000000 0.0000000000000000 -0.53352831387702171 0.44385053678082920 3.1033440413996805
