2
Lattice="4.7243153133767404 0.0000000000000000 0.0000000000000000 0.0000000000000000 4.7243153133767404 0.0000000000000000 0.0000000000000000 0.0000000000000000 4.7243153133767404" Properties=species:S:1:pos:R:3:dipoles:R:3
Fe -1.2500000000000000 0.0000000000000000 0.0000000000000000 -0.61549276310263878 0.19400915077794939 3.1138286895689546
Fe 1.2500000000000000 0.0000000000000000 0.0000000000000000 0.61440588550403319 -0.19431492503646711 3.1140242641582043
