2
Lattice="4.7243153133767404 0.0000000000000000 0.0000000000000000 0.0000000000000000 4.7243153133767404 0.0000000000000000 0.0000000000000000 0.0000000000000000 4.7243153133767404" Properties=species:S:1:pos:R:3:dipoles:R:3
Fe -1.2500000000000000 0.0000000000000000 0.0000000000000000 -0.12026064798592995 -0.63640339132938095 3.1133467683588503
Fe 1.2500000000000000 0.0000000000000000 0.0000000000000000 0.12380212891714780 0.63884646277800183 3.1127075400479836
