2
Lattice="4.7243153133767404 0.0000000000000000 0.0000000000000000 0.0000000000000000 4.7243153133767404 0.0000000000000000 0.0000000000000000 0.0000000000000000 4.7243153133767404" Properties=species:S:1:pos:R:3:dipoles:R:3
Fe -1.2500000000000000 0.0000000000000000 0.0000000000000000 0.59006426718890681 -8.9634014394574343E-002 3.1234900198416353
Fe 1.2500000000000000 0.0000000000000000 0.0000000000000000 -0.58959373415288019 9.6005560704347029E-002 3.1233895307760595
