2
Lattice="4.7243153133767404 0.0000000000000000 0.0000000000000000 0.0000000000000000 4.7243153133767404 0.0000000000000000 0.0000000000000000 0.0000000000000000 4.7243153133767404" Properties=species:S:1:pos:R:3:dipoles:R:3
Fe -1.2500000000000000 0.0000000000000000 0.0000000000000000 -3.8335547680321623E-002 0.66788011160399074 3.1088368471677521
Fe 1.2500000000000000 0.0000000000000000 0.0000000000000000 3.4604743700032685E-002 -0.66503488674775313 3.1094904905983896
