2
Lattice="4.7243153133767404 0.0000000000000000 0.0000000000000000 0.0000000000000000 4.7243153133767404 0.0000000000000000 0.0000000000000000 0.0000000000000000 4.7243153133767404" Properties=species:S:1:pos:R:3:dipoles:R:3
Fe -1.2500000000000000 0.0000000000000000 0.0000000000000000 0.36202771731727834 0.56009290388348287 3.1092815682908861
Fe 1.2500000000000000 0.0000000000000000 0.0000000000000000 -0.36517624431973450 -0.55506145013126740 3.1098156050098305
