2
Lattice="4.7243153133767404 0.0000000000000000 0.0000000000000000 0.0000000000000000 4.7243153133767404 0.0000000000000000 0.0000000000000000 0.0000000000000000 4.7243153133767404" Properties=species:S:1:pos:R:3:dipoles:R:3
Fe -1.2500000000000000 0.0000000000000000 0.0000000000000000 0.49023150645471814 -0.48674055929232685 3.1040548799947043
Fe 1.2500000000000000 0.0000000000000000 0.0000000000000000 -0.48757500066915571 0.49248628042506898 3.1035669611457624
