2
Lattice="4.7243153133767404 0.0000000000000000 0.0000000000000000 0.0000000000000000 4.7243153133767404 0.0000000000000000 0.0000000000000000 0.0000000000000000 4.7243153133767404" Properties=species:S:1:pos:R:3:dipoles:R:3
Fe -1.2500000000000000 0.0000000000000000 0.0000000000000000 0.41975072208992470 -0.45883589083698739 3.1186020837203352
Fe 1.2500000000000000 0.0000000000000000 0.0000000000000000 -0.41719893464589453 0.46425094347052176 3.1181430548352091
