2
Lattice="4.7243153133767404 0.0000000000000000 0.0000000000000000 0.0000000000000000 4.7243153133767404 0.0000000000000000 0.0000000000000000 0.0000000000000000 4.7243153133767404" Properties=species:S:1:pos:R:3:dipoles:R:3
Fe -1.2500000000000000 0.0000000000000000 0.0000000000000000 0.55383483365466391 0.43112555901885008 3.1015798763519533
Fe 1.2500000000000000 0.0000000000000000 0.0000000000000000 -0.55625350618485725 -0.42507400734094924 3.1019822896238707
