2
Lattice="4.7243153133767404 0.0000000000000000 0.0000000000000000 0.0000000000000000 4.7243153133767404 0.0000000000000000 0.0000000000000000 0.0000000000000000 4.7243153133767404" Properties=species:S:1:pos:R:3:dipoles:R:3
Fe -1.2500000000000000 0.0000000000000000 0.0000000000000000 -0.15281761713470279 0.58424038176090121 3.1221322765400426
Fe 1.2500000000000000 0.0000000000000000 0.0000000000000000 0.14949966592150804 -0.58201727740224052 3.1227080777259064
