2
Lattice="4.7243153133767404 0.0000000000000000 0.0000000000000000 0.0000000000000000 4.7243153133767404 0.0000000000000000 0.0000000000000000 0.0000000000000000 4.7243153133767404" Properties=species:S:1:pos:R:3:dipoles:R:3
Fe -1.2500000000000000 0.0000000000000000 0.0000000000000000 0.58002005245869925 0.32793142404923226 3.1094111532357487
Fe 1.2500000000000000 0.0000000000000000 0.0000000000000000 -0.58188530623295953 -0.32169909225818960 3.1097136820663058
