2
Lattice="4.7243153133767404 0.0000000000000000 0.0000000000000000 0.0000000000000000 4.7243153133767404 0.0000000000000000 0.0000000000000000 0.0000000000000000 4.7243153133767404" Properties=species:S:1:pos:R:3:dipoles:R:3
Fe -1.2500000000000000 0.0000000000000000 0.0000000000000000 -0.40375944465310115 -0.50595746468489466 3.1134202020901531
Fe 1.2500000000000000 0.0000000000000000 0.0000000000000000 0.40658429725434647 0.50684240287622551 3.1129086057693374
