2
Lattice="4.7243153133767404 0.0000000000000000 0.0000000000000000 0.0000000000000000 4.7243153133767404 0.0000000000000000 0.0000000000000000 0.0000000000000000 4.7243153133767404" Properties=species:S:1:pos:R:3:dipoles:R:3
Fe -1.2500000000000000 0.0000000000000000 0.0000000000000000 0.44004769030272589 -0.53097919426523987 3.1043226516450697
Fe 1.2500000000000000 0.0000000000000000 0.0000000000000000 -0.43714472784099201 0.53645466132627018 3.1037913723802588
