2
Lattice="4.7243153133767404 0.0000000000000000 0.0000000000000000 0.0000000000000000 4.7243153133767404 0.0000000000000000 0.0000000000000000 0.0000000000000000 4.7243153133767404" Properties=species:S:1:pos:R:3:dipoles:R:3
Fe -1.2500000000000000 0.0000000000000000 0.0000000000000000 -2.6656782540925839E-002 -0.68234330594491943 3.1058166444232858
Fe 1.2500000000000000 0.0000000000000000 0.0000000000000000 3.0414916793356284E-002 0.68529630564400135 3.1051318661704403
