2
Lattice="4.7243153133767404 0.0000000000000000 0.0000000000000000 0.0000000000000000 4.7243153133767404 0.0000000000000000 0.0000000000000000 0.0000000000000000 4.7243153133767404" Properties=species:S:1:pos:R:3:dipoles:R:3
Fe -1.2500000000000000 0.0000000000000000 0.0000000000000000 0.56052121834956448 -0.19993793010258976 3.1238183026364030
Fe 1.2500000000000000 0.0000000000000000 0.0000000000000000 -0.55942366701783841 0.20614957393058500 3.1236112936709235
