2
Lattice="4.7243153133767404 0.0000000000000000 0.0000000000000000 0.0000000000000000 4.7243153133767404 0.0000000000000000 0.0000000000000000 0.0000000000000000 4.7243153133767404" Properties=species:S:1:pos:R:3:dipoles:R:3
Fe -1.2500000000000000 0.0000000000000000 0.0000000000000000 -0.50211503438258243 -0.23111648440369503 3.1315915542873496
Fe 1.2500000000000000 0.0000000000000000 0.0000000000000000 0.50343768459049087 0.23140716815208323 3.1313577279292120
