2
Lattice="4.7243153133767404 0.0000000000000000 0.0000000000000000 0.0000000000000000 4.7243153133767404 0.0000000000000000 0.0000000000000000 0.0000000000000000 4.7243153133767404" Properties=species:S:1:pos:R:3:dipoles:R:3
Fe -1.2500000000000000 0.0000000000000000 0.0000000000000000 0.45591690668018292 -0.32774541716066313 3.1300355773909900
Fe 1.2500000000000000 0.0000000000000000 0.0000000000000000 -0.45407754865182676 0.33340699204465685 3.1297049952776823
