2
Lattice="4.7243153133767404 0.0000000000000000 0.0000000000000000 0.0000000000000000 4.7243153133767404 0.0000000000000000 0.0000000000000000 0.0000000000000000 4.7243153133767404" Properties=species:S:1:pos:R:3:dipoles:R:3
Fe -1.2500000000000000 0.0000000000000000 0.0000000000000000 0.56027405547058517 -8.0632317565043909E-002 3.1292157822896485
Fe 1.2500000000000000 0.0000000000000000 0.0000000000000000 -0.55985128363653258 8.6868449572327422E-002 3.1291245441304207
