2
Lattice="4.7243153133767404 0.0000000000000000 0.0000000000000000 0.0000000000000000 4.7243153133767404 0.0000000000000000 0.0000000000000000 0.0000000000000000 4.7243153133767404" Properties=species:S:1:pos:R:3:dipoles:R:3
Fe -1.2500000000000000 0.0000000000000000 0.0000000000000000 0.60844554029844622 -0.15635674251571097 3.1173300424499186
Fe 1.2500000000000000 0.0000000000000000 0.0000000000000000 -0.60760355973932267 0.16280111319556534 3.1171643703427594
