2
Lattice="4.7243153133767404 0.0000000000000000 0.0000000000000000 0.0000000000000000 4.7243153133767404 0.0000000000000000 0.0000000000000000 0.0000000000000000 4.7243153133767404" Properties=species:S:1:pos:R:3:dipoles:R:3
Fe -1.2500000000000000 0.0000000000000000 0.0000000000000000 -0.66560049384663966 0.14124340841190658 3.1063525688774147
Fe 1.2500000000000000 0.0000000000000000 0.0000000000000000 0.66481778889349108 -0.14179634171487271 3.1064949871272951
