2
Lattice="4.7243153133767404 0.0000000000000000 0.0000000000000000 0.0000000000000000 4.7243153133767404 0.0000000000000000 0.0000000000000000 0.0000000000000000 4.7243153133767404" Properties=species:S:1:pos:R:3:dipoles:R:3
Fe -1.2500000000000000 0.0000000000000000 0.0000000000000000 1.6270944063370586E-002 0.57096143886803263 3.1282804049037911
Fe 1.2500000000000000 0.0000000000000000 0.0000000000000000 -1.9545537415655855E-002 -0.56779440099766387 3.1288380415359978
