2
Lattice="4.7243153133767404 0.0000000000000000 0.0000000000000000 0.0000000000000000 4.7243153133767404 0.0000000000000000 0.0000000000000000 0.0000000000000000 4.7243153133767404" Properties=species:S:1:pos:R:3:dipoles:R:3
Fe -1.2500000000000000 0.0000000000000000 0.0000000000000000 0.47793438808086097 -0.34947136201395546 3.1243956996228648
Fe 1.2500000000000000 0.0000000000000000 0.0000000000000000 -0.47598533285285316 0.35522960981742968 3.1240438356748301
