2
Lattice="4.7243153133767404 0.0000000000000000 0.0000000000000000 0.0000000000000000 4.7243153133767404 0.0000000000000000 0.0000000000000000 0.0000000000000000 4.7243153133767404" Properties=species:S:1:pos:R:3:dipoles:R:3
Fe -1.2500000000000000 0.0000000000000000 0.0000000000000000 -0.49803206020551460 0.29576278957457341 3.1268016309498274
Fe 1.2500000000000000 0.0000000000000000 0.0000000000000000 0.49634527362461317 -0.29545708970149714 3.1270987316513708
