2
Lattice="4.7243153133767404 0.0000000000000000 0.0000000000000000 0.0000000000000000 4.7243153133767404 0.0000000000000000 0.0000000000000000 0.0000000000000000 4.7243153133767404" Properties=species:S:1:pos:R:3:dipoles:R:3
Fe -1.2500000000000000 0.0000000000000000 0.0000000000000000 0.29024226378543855 0.56278269555735705 3.1163175489500268
Fe 1.2500000000000000 0.0000000000000000 0.0000000000000000 -0.29343122266726274 -0.55812217669293029 3.1168570312812740
