2
Lattice="4.7243153133767404 0.0000000000000000 0.0000000000000000 0.0000000000000000 4.7243153133767404 0.0000000000000000 0.0000000000000000 0.0000000000000000 4.7243153133767404" Properties=species:S:1:pos:R:3:dipoles:R:3
Fe -1.2500000000000000 0.0000000000000000 0.0000000000000000 -0.10308216304209619 0.66163006212023368 3.1087006495578460
Fe 1.2500000000000000 0.0000000000000000 0.0000000000000000 9.9388642269852015E-002 -0.65913711791222684 3.1093504398150547
