2
Lattice="4.7243153133767404 0.0000000000000000 0.0000000000000000 0.0000000000000000 4.7243153133767404 0.0000000000000000 0.0000000000000000 0.0000000000000000 4.7243153133767404" Properties=species:S:1:pos:R:3:dipoles:R:3
Fe -1.2500000000000000 0.0000000000000000 0.0000000000000000 0.17323720513613552 -0.52755396134184918 3.1311460663196682
Fe 1.2500000000000000 0.0000000000000000 0.0000000000000000 -0.17024539827723587 0.53164120686688610 3.1306188096806902
