2
Lattice="4.7243153133767404 0.0000000000000000 0.0000000000000000 0.0000000000000000 4.7243153133767404 0.0000000000000000 0.0000000000000000 0.0000000000000000 4.7243153133767404" Properties=species:S:1:pos:R:3:dipoles:R:3
Fe -1.2500000000000000 0.0000000000000000 0.0000000000000000 -0.51198080294913129 0.27170059404591873 3.1267322310371637
Fe 1.2500000000000000 0.0000000000000000 0.0000000000000000 0.51043154902312382 -0.27147195075753111 3.1270053747497353
