2
Lattice="4.7243153133767404 0.0000000000000000 0.0000000000000000 0.0000000000000000 4.7243153133767404 0.0000000000000000 0.0000000000000000 0.0000000000000000 4.7243153133767404" Properties=species:S:1:pos:R:3:dipoles:R:3
Fe -1.2500000000000000 0.0000000000000000 0.0000000000000000 -0.22773517978206487 0.52682031018200615 3.1277782927613895
Fe 1.2500000000000000 0.0000000000000000 0.0000000000000000 0.22472186178328876 -0.52501362650458749 3.1282999819104833
