2
Lattice="4.7243153133767404 0.0000000000000000 0.0000000000000000 0.0000000000000000 4.7243153133767404 0.0000000000000000 0.0000000000000000 0.0000000000000000 4.7243153133767404" Properties=species:S:1:pos:R:3:dipoles:R:3
Fe -1.2500000000000000 0.0000000000000000 0.0000000000000000 -0.25499219613857971 -0.55869760925185719 3.1201339652849307
Fe 1.2500000000000000 0.0000000000000000 0.0000000000000000 0.25813229681039873 0.56039488695459949 3.1195713308110977
