2
Lattice="4.7243153133767404 0.0000000000000000 0.0000000000000000 0.0000000000000000 4.7243153133767404 0.0000000000000000 0.0000000000000000 0.0000000000000000 4.7243153133767404" Properties=species:S:1:pos:R:3:dipoles:R:3
Fe -1.2500000000000000 0.0000000000000000 0.0000000000000000 0.69759993833004141 -4.1385307500077330E-002 3.1022639446644540
Fe 1.2500000000000000 0.0000000000000000 0.0000000000000000 -0.69741420979597801 4.8237451114088663E-002 3.1022067255881987
