2
Lattice="4.7243153133767404 0.0000000000000000 0.0000000000000000 0.0000000000000000 4.7243153133767404 0.0000000000000000 0.0000000000000000 0.0000000000000000 4.7243153133767404" Properties=species:S:1:pos:R:3:dipoles:R:3
Fe -1.2500000000000000 0.0000000000000000 0.0000000000000000 0.25303405022080294 -0.60037231407932090 3.1125434702050225
Fe 1.2500000000000000 0.0000000000000000 0.0000000000000000 -0.24970834716592855 0.60485477636586626 3.1119441577353233
