2
Lattice="4.7243153133767404 0.0000000000000000 0.0000000000000000 0.0000000000000000 4.7243153133767404 0.0000000000000000 0.0000000000000000 0.0000000000000000 4.7243153133767404" Properties=species:S:1:pos:R:3:dipoles:R:3
Fe -1.2500000000000000 0.0000000000000000 0.0000000000000000 -0.37871965647834643 -0.52491312048758798 3.1134285984645520
Fe 1.2500000000000000 0.0000000000000000 0.0000000000000000 0.38164938614811561 0.52593616312597136 3.1128981509790927
