2
Lattice="4.7243153133767404 0.0000000000000000 0.0000000000000000 0.0000000000000000 4.7243153133767404 0.0000000000000000 0.0000000000000000 0.0000000000000000 4.7243153133767404" Properties=species:S:1:pos:R:3:dipoles:R:3
Fe -1.2500000000000000 0.0000000000000000 0.0000000000000000 0.56385168849689127 -5.3751913411691200E-002 3.1291503647450005
Fe 1.2500000000000000 0.0000000000000000 0.0000000000000000 -0.56358273808742476 6.0006975106163409E-002 3.1290851155359256
