2
Lattice="4.7243153133767404 0.0000000000000000 0.0000000000000000 0.0000000000000000 4.7243153133767404 0.0000000000000000 0.0000000000000000 0.0000000000000000 4.7243153133767404" Properties=species:S:1:pos:R:3:dipoles:R:3
Fe -1.2500000000000000 0.0000000000000000 0.0000000000000000 0.59788703923796427 -4.2044640376219921E-003 3.1232856755015841
Fe 1.2500000000000000 0.0000000000000000 0.0000000000000000 -0.59790152964566368 1.0616025214235636E-002 3.1232676895930673
