2
Lattice="4.7243153133767404 0.0000000000000000 0.0000000000000000 0.0000000000000000 4.7243153133767404 0.0000000000000000 0.0000000000000000 0.0000000000000000 4.7243153133767404" Properties=species:S:1:pos:R:3:dipoles:R:3
Fe -1.2500000000000000 0.0000000000000000 0.0000000000000000 -0.42818638124517877 0.52098994671775523 3.1076721027700493
Fe 1.2500000000000000 0.0000000000000000 0.0000000000000000 0.42528592336659377 -0.52026222936950539 3.1081922553274679
