2
Lattice="4.7243153133767404 0.0000000000000000 0.0000000000000000 0.0000000000000000 4.7243153133767404 0.0000000000000000 0.0000000000000000 0.0000000000000000 4.7243153133767404" Properties=species:S:1:pos:R:3:dipoles:R:3
Fe -1.2500000000000000 0.0000000000000000 0.0000000000000000 -0.40236764233868944 -0.42138684812273469 3.1261691260435613
Fe 1.2500000000000000 0.0000000000000000 0.0000000000000000 0.40475822590177141 0.42225329935907352 3.1257435802933697
