2
Lattice="4.7243153133767404 0.0000000000000000 0.0000000000000000 0.0000000000000000 4.7243153133767404 0.0000000000000000 0.0000000000000000 0.0000000000000000 4.7243153133767404" Properties=species:S:1:pos:R:3:dipoles:R:3
Fe -1.2500000000000000 0.0000000000000000 0.0000000000000000 0.55539439781228095 -0.10729893612129360 3.1292849025274059
Fe 1.2500000000000000 0.0000000000000000 0.0000000000000000 -0.55481898776545391 0.11350883170011739 3.1291678823516293
