2
Lattice="4.7243153133767404 0.0000000000000000 0.0000000000000000 0.0000000000000000 4.7243153133767404 0.0000000000000000 0.0000000000000000 0.0000000000000000 4.7243153133767404" Properties=species:S:1:pos:R:3:dipoles:R:3
Fe -1.2500000000000000 0.0000000000000000 0.0000000000000000 -0.58123705759862998 3.2996342373374309E-002 3.1262557035956053
Fe 1.2500000000000000 0.0000000000000000 0.0000000000000000 0.58104970057265981 -3.3145852108105590E-002 3.1262889498497137
