2
Lattice="4.7243153133767404 0.0000000000000000 0.0000000000000000 0.0000000000000000 4.7243153133767404 0.0000000000000000 0.0000000000000000 0.0000000000000000 4.7243153133767404" Properties=species:S:1:pos:R:3:dipoles:R:3
Fe -1.2500000000000000 0.0000000000000000 0.0000000000000000 -2.6115301398938473E-002 -0.64771417297654255 3.1132273192232818
Fe 1.2500000000000000 0.0000000000000000 0.0000000000000000 2.9716022628506717E-002 0.65067263369500072 3.1125780442841116
