2
Lattice="4.7243153133767404 0.0000000000000000 0.0000000000000000 0.0000000000000000 4.7243153133767404 0.0000000000000000 0.0000000000000000 0.0000000000000000 4.7243153133767404" Properties=species:S:1:pos:R:3:dipoles:R:3
Fe -1.2500000000000000 0.0000000000000000 0.0000000000000000 0.57836141114888640 -0.24156042493735116 3.1176187450036221
Fe 1.2500000000000000 0.0000000000000000 0.0000000000000000 -0.57703858083102444 0.24784213424974444 3.1173708077036704
