13
Lattice="46.969008842491689 0.0000000000000000 0.0000000000000000 0.0000000000000000 46.969008842491689 0.0000000000000000 0.0000000000000000 0.0000000000000000 46.969008842491689" Properties=species:S:1:pos:R:3:dipoles:R:3
Fe 0.0000000000000000 0.0000000000000000 0.0000000000000000 1.0938004407707522 0.54620634838460436 1.2023819990839379
Fe 0.0000000000000000 1.7575088999999999 1.7575088999999999 1.9714641175871706 0.66588110980171988 1.6827903165091289
Fe 0.0000000000000000 -1.7575088999999999 1.7575088999999999 2.2825181992110526 0.97155015255332300 -0.14249022354228338
Fe 0.0000000000000000 1.7575088999999999 -1.7575088999999999 1.4047201343766114 0.84004130373885610 2.1288224487967295
Fe 0.0000000000000000 -1.7575088999999999 -1.7575088999999999 1.2103674060380110 1.3010800540885965 2.0010158218302712
Fe 1.7575088999999999 0.0000000000000000 1.7575088999999999 1.8435626165088503 1.0610742257282959 1.6098297788356832
Fe -1.7575088999999999 0.0000000000000000 1.7575088999999999 2.3161568469197045 0.61050341889695436 1.1860936841062701
Fe 1.7575088999999999 0.0000000000000000 -1.7575088999999999 0.27330421136560928 1.0238899466313913 2.3403376555437032
Fe -1.7575088999999999 0.0000000000000000 -1.7575088999999999 1.8165857199711453 0.87362770788534849 1.7481987065933757
Fe 1.7575088999999999 1.7575088999999999 0.0000000000000000 1.3784698548709309 0.82489019528379481 2.1356860649624374
Fe -1.7575088999999999 1.7575088999999999 0.0000000000000000 1.9511608364240822 0.53699790550829607 1.7481442306953814
Fe 1.7575088999999999 -1.7575088999999999 0.0000000000000000 1.2295128358827314 1.4439016103078137 1.8833029902474938
Fe -1.7575088999999999 -1.7575088999999999 0.0000000000000000 2.1283562935595790 1.0838940310877265 1.2022955370777968
