13
Lattice="46.969008842491689 0.0000000000000000 0.0000000000000000 0.0000000000000000 46.969008842491689 0.0000000000000000 0.0000000000000000 0.0000000000000000 46.969008842491689" Properties=species:S:1:pos:R:3:dipoles:R:3
Fe 0.0000000000000000 0.0000000000000000 0.0000000000000000 4.9516605247820207E-002 1.7437854690824237E-002 2.0266654506600230
Fe 0.0000000000000000 1.7575088999999999 1.7575088999999999 2.0473721666192675 8.7436006210280637E-002 1.7355246692674589
Fe 0.0000000000000000 -1.7575088999999999 1.7575088999999999 1.2364759869964252 0.29693698267019442 -2.3711596067099361
Fe 0.0000000000000000 1.7575088999999999 -1.7575088999999999 2.2526811911613489 9.6353811381732365E-002 1.4511124695231241
Fe 0.0000000000000000 -1.7575088999999999 -1.7575088999999999 0.91286318519546017 2.2896700087927333 1.0881478351592280
Fe 1.7575088999999999 0.0000000000000000 1.7575088999999999 1.5278574571462396 1.6862080127790917 1.3790947407182765
Fe -1.7575088999999999 0.0000000000000000 1.7575088999999999 1.4888006660824975 4.6138092139482625E-002 2.2124407180650558
Fe 1.7575088999999999 0.0000000000000000 -1.7575088999999999 -2.1303657267971108 0.17653813020807868 1.6249924838509988
Fe -1.7575088999999999 0.0000000000000000 -1.7575088999999999 1.7957621039808180 1.4102771170964596 1.3733872923724988
Fe 1.7575088999999999 1.7575088999999999 0.0000000000000000 1.5973797798873610 0.58400068092259183 2.0261938401713455
Fe -1.7575088999999999 1.7575088999999999 0.0000000000000000 2.2607411737211462 4.1374643858836449E-002 1.3821279323276581
Fe 1.7575088999999999 -1.7575088999999999 0.0000000000000000 0.51127728713061538 0.88687258652221745 2.4408266900223707
Fe -1.7575088999999999 -1.7575088999999999 0.0000000000000000 2.2883398621895594 0.12416199082755910 1.3184783322233256
