13
Lattice="46.969008842491689 0.0000000000000000 0.0000000000000000 0.0000000000000000 46.969008842491689 0.0000000000000000 0.0000000000000000 0.0000000000000000 46.969008842491689" Properties=species:S:1:pos:R:3:dipoles:R:3
Fe 0.0000000000000000 0.0000000000000000 0.0000000000000000 1.2322446371663203 0.76413451764216911 1.1252971451436584
Fe 0.0000000000000000 1.7575088999999999 1.7575088999999999 1.7923135142814730 1.1187593871756740 1.6501420910002702
Fe 0.0000000000000000 -1.7575088999999999 1.7575088999999999 1.7965384747711635 1.1183620493468691 1.6514243351160205
Fe 0.0000000000000000 1.7575088999999999 -1.7575088999999999 1.8048582794509032 1.1095973195328366 1.6445642884168712
Fe 0.0000000000000000 -1.7575088999999999 -1.7575088999999999 1.8026461539867491 1.1143376251869193 1.6417929973742811
Fe 1.7575088999999999 0.0000000000000000 1.7575088999999999 1.7948956751574738 1.1194156772487711 1.6461672680868160
Fe -1.7575088999999999 0.0000000000000000 1.7575088999999999 1.7929404204478359 1.1190543258266885 1.6516378478015667
Fe 1.7575088999999999 0.0000000000000000 -1.7575088999999999 1.8266028030642245 1.1073996513752371 1.6314088944325063
Fe -1.7575088999999999 0.0000000000000000 -1.7575088999999999 1.7980363606338572 1.1117437995077868 1.6483088820914176
Fe 1.7575088999999999 1.7575088999999999 0.0000000000000000 1.8044988240185829 1.1125051365725098 1.6422529076425589
Fe -1.7575088999999999 1.7575088999999999 0.0000000000000000 1.7924062355580725 1.1170464833294202 1.6514265428264607
Fe 1.7575088999999999 -1.7575088999999999 0.0000000000000000 1.8018438117846969 1.1132604733568749 1.6432701679568020
Fe -1.7575088999999999 -1.7575088999999999 0.0000000000000000 1.7960471289925859 1.1134326803679913 1.6500457302164702
