13
Lattice="46.969008842491689 0.0000000000000000 0.0000000000000000 0.0000000000000000 46.969008842491689 0.0000000000000000 0.0000000000000000 0.0000000000000000 46.969008842491689" Properties=species:S:1:pos:R:3:dipoles:R:3
Fe 0.0000000000000000 0.0000000000000000 0.0000000000000000 0.25235010680150349 0.11175835233174276 1.5509402285650542
Fe 0.0000000000000000 1.7575088999999999 1.7575088999999999 2.0294774072488719 0.26512367229552064 1.7420620107250011
Fe 0.0000000000000000 -1.7575088999999999 1.7575088999999999 1.9348293414374995 0.61553835879976948 -1.7468306750579479
Fe 0.0000000000000000 1.7575088999999999 -1.7575088999999999 2.0458652339107726 0.32495001159647535 1.6891809964673057
Fe 0.0000000000000000 -1.7575088999999999 -1.7575088999999999 0.98839875746752393 2.0516118821753624 1.4474470201084917
Fe 1.7575088999999999 0.0000000000000000 1.7575088999999999 1.6168458171835163 1.4961291366173979 1.4633473806674366
Fe -1.7575088999999999 0.0000000000000000 1.7575088999999999 1.8349926762315647 0.17467248941275268 1.9298955811051737
Fe 1.7575088999999999 0.0000000000000000 -1.7575088999999999 -1.4717953802818080 0.58943971466002243 2.2081080897166760
Fe -1.7575088999999999 0.0000000000000000 -1.7575088999999999 1.8391526738348496 1.2329976144265140 1.4699801318301837
Fe 1.7575088999999999 1.7575088999999999 0.0000000000000000 1.5319822045647840 0.62171388217848333 2.0510156717349353
Fe -1.7575088999999999 1.7575088999999999 0.0000000000000000 2.1773818398100144 0.14795457090028297 1.5184761433988985
Fe 1.7575088999999999 -1.7575088999999999 0.0000000000000000 0.63590272288127292 1.0946081352420474 2.3133022915293902
Fe -1.7575088999999999 -1.7575088999999999 0.0000000000000000 2.2783270675092524 0.42921647426466158 1.2769290609897535
