13
Lattice="46.969008842491689 0.0000000000000000 0.0000000000000000 0.0000000000000000 46.969008842491689 0.0000000000000000 0.0000000000000000 0.0000000000000000 46.969008842491689" Properties=species:S:1:pos:R:3:dipoles:R:3
Fe 0.0000000000000000 0.0000000000000000 0.0000000000000000 0.57264410362393503 0.26978002221484138 1.2764067555327983
Fe 0.0000000000000000 1.7575088999999999 1.7575088999999999 2.0235358620860073 0.47738813489491144 1.7390653619180405
Fe 0.0000000000000000 -1.7575088999999999 1.7575088999999999 2.4664227810678190 0.89946580949581534 -0.96320298747085198
Fe 0.0000000000000000 1.7575088999999999 -1.7575088999999999 1.7871557621774405 0.61735169571647419 1.9967669648956958
Fe 0.0000000000000000 -1.7575088999999999 -1.7575088999999999 1.0868929883137397 1.7339752063484972 1.8580303956368360
Fe 1.7575088999999999 0.0000000000000000 1.7575088999999999 1.7665264418477409 1.2822950240470059 1.5724888955362286
Fe -1.7575088999999999 0.0000000000000000 1.7575088999999999 2.2438972453003534 0.36200483978059483 1.5730786478395886
Fe 1.7575088999999999 0.0000000000000000 -1.7575088999999999 -0.58716625270593759 0.99548051452735864 2.6619804242756540
Fe -1.7575088999999999 0.0000000000000000 -1.7575088999999999 1.9023397229514547 1.0327582908673827 1.6186006700786060
Fe 1.7575088999999999 1.7575088999999999 0.0000000000000000 1.4658412883303913 0.70415833944027439 2.1394419659464363
Fe -1.7575088999999999 1.7575088999999999 0.0000000000000000 2.1000988145753050 0.30743919765172462 1.6841029451435812
Fe 1.7575088999999999 -1.7575088999999999 0.0000000000000000 0.85917207846255628 1.3653545246795427 2.1745831110943090
Fe -1.7575088999999999 -1.7575088999999999 0.0000000000000000 2.2810489944082946 0.81824537906150430 1.2388810798119272
