13
Lattice="46.969008842491689 0.0000000000000000 0.0000000000000000 0.0000000000000000 46.969008842491689 0.0000000000000000 0.0000000000000000 0.0000000000000000 46.969008842491689" Properties=species:S:1:pos:R:3:dipoles:R:3
Fe 0.0000000000000000 0.0000000000000000 0.0000000000000000 1.2553829559833118 0.76944522026241624 1.1511326212250874
Fe 0.0000000000000000 1.7575088999999999 1.7575088999999999 1.7816508714455805 1.1770331060317043 1.6366124211591877
Fe 0.0000000000000000 -1.7575088999999999 1.7575088999999999 1.9342496832357730 1.1509618108720150 1.5641404160028252
Fe 0.0000000000000000 1.7575088999999999 -1.7575088999999999 1.7017245122087286 1.1427530911372845 1.7588484529832615
Fe 0.0000000000000000 -1.7575088999999999 -1.7575088999999999 1.8462569249781806 0.99944869686027327 1.7146734537928168
Fe 1.7575088999999999 0.0000000000000000 1.7575088999999999 1.8641770188093738 1.0809705609960778 1.6056999503891849
Fe -1.7575088999999999 0.0000000000000000 1.7575088999999999 1.8278236238719490 1.2071918426020909 1.5937229524641605
Fe 1.7575088999999999 0.0000000000000000 -1.7575088999999999 1.8345393204337539 1.0828933698969045 1.7736385478451795
Fe -1.7575088999999999 0.0000000000000000 -1.7575088999999999 1.7370603442318693 1.1029225599498713 1.7261933661555138
Fe 1.7575088999999999 1.7575088999999999 0.0000000000000000 1.7635014604212824 1.1160694603099106 1.7010873942541722
Fe -1.7575088999999999 1.7575088999999999 0.0000000000000000 1.7233480456466015 1.1962225013216818 1.7004412092816512
Fe 1.7575088999999999 -1.7575088999999999 0.0000000000000000 1.9265790288660749 1.0575747699143254 1.6035640392160964
Fe -1.7575088999999999 -1.7575088999999999 0.0000000000000000 1.8158291791455379 1.1343158070626727 1.6405900429816158
