13
Lattice="46.969008842491689 0.0000000000000000 0.0000000000000000 0.0000000000000000 46.969008842491689 0.0000000000000000 0.0000000000000000 0.0000000000000000 46.969008842491689" Properties=species:S:1:pos:R:3:dipoles:R:3
Fe 0.0000000000000000 0.0000000000000000 0.0000000000000000 3.3020252892475717E-003 5.1130697696861679E-004 3.3588021362614238
Fe 0.0000000000000000 1.7575088999999999 1.7575088999999999 2.6444161982355725 1.0065228167063425E-002 2.2209353364150921
Fe 0.0000000000000000 -1.7575088999999999 1.7575088999999999 1.2036289821996584 0.21920770594521288 -3.2469285173436115
Fe 0.0000000000000000 1.7575088999999999 -1.7575088999999999 2.9825098053552765 1.0350759938713927E-002 1.7402822499321835
Fe 0.0000000000000000 -1.7575088999999999 -1.7575088999999999 1.1148682977682274 3.0394204383627161 1.2004191380272178
Fe 1.7575088999999999 0.0000000000000000 1.7575088999999999 1.9235823348562811 2.2781250263163160 1.7303019805026150
Fe -1.7575088999999999 0.0000000000000000 1.7575088999999999 1.7435024586693830 4.0490608124307843E-003 2.9803331189638786
Fe 1.7575088999999999 0.0000000000000000 -1.7575088999999999 -2.9644932754302471 2.1268382336934746E-002 1.7596708006317199
Fe -1.7575088999999999 0.0000000000000000 -1.7575088999999999 2.2913057010325257 1.9127334179326030 1.7291944872048903
Fe 1.7575088999999999 1.7575088999999999 0.0000000000000000 2.0813417602135331 0.75691575064912819 2.6402096240395867
Fe -1.7575088999999999 1.7575088999999999 0.0000000000000000 2.9811109547728831 3.9357118600522947E-003 1.7287092610738319
Fe 1.7575088999999999 -1.7575088999999999 0.0000000000000000 0.59483584964805991 1.0328419717262527 3.2339146606357039
Fe -1.7575088999999999 -1.7575088999999999 0.0000000000000000 2.9837876368471234 1.2610953373451587E-002 1.7223476752606863
