13
Lattice="46.969008842491689 0.0000000000000000 0.0000000000000000 0.0000000000000000 46.969008842491689 0.0000000000000000 0.0000000000000000 0.0000000000000000 46.969008842491689" Properties=species:S:1:pos:R:3:dipoles:R:3
Fe 0.0000000000000000 0.0000000000000000 0.0000000000000000 1.2318533126407980 0.76153721286764375 1.1265070161867590
Fe 0.0000000000000000 1.7575088999999999 1.7575088999999999 1.7938454901871024 1.1126325950787483 1.6510950568530975
Fe 0.0000000000000000 -1.7575088999999999 1.7575088999999999 1.7996594677087596 1.1189379716750947 1.6380595547445158
Fe 0.0000000000000000 1.7575088999999999 -1.7575088999999999 1.7964257483663608 1.1054790955020943 1.6535611689673138
Fe 0.0000000000000000 -1.7575088999999999 -1.7575088999999999 1.7906626246491297 1.1170419173352930 1.6497060887149644
Fe 1.7575088999999999 0.0000000000000000 1.7575088999999999 1.7958510795225004 1.1199936516021189 1.6445368462962668
Fe -1.7575088999999999 0.0000000000000000 1.7575088999999999 1.8057374466524836 1.1103752241414355 1.6379551770465115
Fe 1.7575088999999999 0.0000000000000000 -1.7575088999999999 1.8112330095417057 1.1044670385841404 1.6402230317830035
Fe -1.7575088999999999 0.0000000000000000 -1.7575088999999999 1.7965588245730773 1.1064694344163659 1.6529560643187335
Fe 1.7575088999999999 1.7575088999999999 0.0000000000000000 1.7951110178948411 1.1070132087553108 1.6534427875000115
Fe -1.7575088999999999 1.7575088999999999 0.0000000000000000 1.7931060997286705 1.1079366271024067 1.6546000223707538
Fe 1.7575088999999999 -1.7575088999999999 0.0000000000000000 1.7877900822679247 1.1228483331630907 1.6490676379618860
Fe -1.7575088999999999 -1.7575088999999999 0.0000000000000000 1.8039884489998843 1.1126502523456996 1.6399362440059946
