13
Lattice="46.969008842491689 0.0000000000000000 0.0000000000000000 0.0000000000000000 46.969008842491689 0.0000000000000000 0.0000000000000000 0.0000000000000000 46.969008842491689" Properties=species:S:1:pos:R:3:dipoles:R:3
Fe 0.0000000000000000 0.0000000000000000 0.0000000000000000 1.2538693229440780 0.77139847015660712 1.1527738241188683
Fe 0.0000000000000000 1.7575088999999999 1.7575088999999999 1.7759789629304139 1.1842003331768811 1.6375311998464732
Fe 0.0000000000000000 -1.7575088999999999 1.7575088999999999 1.9320323999604336 1.1537728184625393 1.5864178810083760
Fe 0.0000000000000000 1.7575088999999999 -1.7575088999999999 1.7246552843405667 1.1473076179930575 1.7404926457297663
Fe 0.0000000000000000 -1.7575088999999999 -1.7575088999999999 1.8535624567692857 1.0031304760459392 1.7101214300594045
Fe 1.7575088999999999 0.0000000000000000 1.7575088999999999 1.8618353893617334 1.0856682334432821 1.6057863186574026
Fe -1.7575088999999999 0.0000000000000000 1.7575088999999999 1.8150270991035322 1.2093779759024910 1.6152816921095254
Fe 1.7575088999999999 0.0000000000000000 -1.7575088999999999 1.8570645275816904 1.0891050709775709 1.7678246335384724
Fe -1.7575088999999999 0.0000000000000000 -1.7575088999999999 1.7417186535455438 1.1121261295142462 1.7167658367444998
Fe 1.7575088999999999 1.7575088999999999 0.0000000000000000 1.7737345051972477 1.1189926531152130 1.6888716229263605
Fe -1.7575088999999999 1.7575088999999999 0.0000000000000000 1.7217987156147987 1.2041887884614677 1.6963826235571937
Fe 1.7575088999999999 -1.7575088999999999 0.0000000000000000 1.9251038252502453 1.0582926378838868 1.6051472171874908
Fe -1.7575088999999999 -1.7575088999999999 0.0000000000000000 1.8109260101044273 1.1317313426746931 1.6506004343797600
