3
Lattice="37.794516672147068 0.0000000000000000 0.0000000000000000 0.0000000000000000 37.794516672147068 0.0000000000000000 0.0000000000000000 0.0000000000000000 11.338355001644119" Properties=species:S:1:pos:R:3:dipoles:R:3
Fe 0.0000000000000000 0.0000000000000000 -2.0000000000000000 -2.1532812364160350 -1.6150082939960542 1.6933777272725097
Fe 0.0000000000000000 0.0000000000000000 0.0000000000000000 1.4956410023984421 -1.9686262323218069 1.9999921873244997
Fe 0.0000000000000000 0.0000000000000000 2.0000000000000000 3.0450378004859142 0.91633033789802776 2.1988757572507837E-002
