3
Lattice="37.794516672147068 0.0000000000000000 0.0000000000000000 0.0000000000000000 37.794516672147068 0.0000000000000000 0.0000000000000000 0.0000000000000000 11.338355001644119" Properties=species:S:1:pos:R:3:dipoles:R:3
Fe 0.0000000000000000 0.0000000000000000 -2.0000000000000000 -2.4147765478612415 -1.1208505243585771 1.7392378577826724
Fe 0.0000000000000000 0.0000000000000000 0.0000000000000000 1.3485577561412467 -2.1743424572490171 1.8883926649284550
Fe 0.0000000000000000 0.0000000000000000 2.0000000000000000 2.8362112128415178 1.3903988986677005 -0.36755524582799065
