3
Lattice="37.794516672147068 0.0000000000000000 0.0000000000000000 0.0000000000000000 37.794516672147068 0.0000000000000000 0.0000000000000000 0.0000000000000000 11.338355001644119" Properties=species:S:1:pos:R:3:dipoles:R:3
Fe 0.0000000000000000 0.0000000000000000 -2.0000000000000000 -1.0125300753908186 -2.3530561385168030 1.8842265403654350
Fe 0.0000000000000000 0.0000000000000000 0.0000000000000000 1.4991929873938328 -1.7231075641091436 2.2126275576922110
Fe 0.0000000000000000 0.0000000000000000 2.0000000000000000 2.9984061784873832 8.0311338205687977E-002 1.0561772946642407
