3
Lattice="37.794516672147068 0.0000000000000000 0.0000000000000000 0.0000000000000000 37.794516672147068 0.0000000000000000 0.0000000000000000 0.0000000000000000 11.338355001644119" Properties=species:S:1:pos:R:3:dipoles:R:3
Fe 0.0000000000000000 0.0000000000000000 -2.0000000000000000 -1.3935175730941123 -2.2391087986540850 1.7767668843345052
Fe 0.0000000000000000 0.0000000000000000 0.0000000000000000 1.5149164095426526 -1.7638101399503556 2.1694243619694844
Fe 0.0000000000000000 0.0000000000000000 2.0000000000000000 3.0777860463053268 0.27946651067978800 0.74935407023427525
