3
Lattice="37.794516672147068 0.0000000000000000 0.0000000000000000 0.0000000000000000 37.794516672147068 0.0000000000000000 0.0000000000000000 0.0000000000000000 11.338355001644119" Properties=species:S:1:pos:R:3:dipoles:R:3
Fe 0.0000000000000000 0.0000000000000000 -2.0000000000000000 -1.1112914255252542 -2.3487607480035693 1.8332360230455234
Fe 0.0000000000000000 0.0000000000000000 0.0000000000000000 1.4984844143897456 -1.7481721224486992 2.1933624165021621
Fe 0.0000000000000000 0.0000000000000000 2.0000000000000000 3.0221314764667953 0.12404529956129252 0.98169959896363346
