3
Lattice="37.794516672147068 0.0000000000000000 0.0000000000000000 0.0000000000000000 37.794516672147068 0.0000000000000000 0.0000000000000000 0.0000000000000000 11.338355001644119" Properties=species:S:1:pos:R:3:dipoles:R:3
Fe 0.0000000000000000 0.0000000000000000 -2.0000000000000000 -1.2093920267206058 -2.3166031568567385 1.8119383928119619
Fe 0.0000000000000000 0.0000000000000000 0.0000000000000000 1.5034012803705250 -1.7519420431518864 2.1869804909091095
Fe 0.0000000000000000 0.0000000000000000 2.0000000000000000 3.0444564096367621 0.17578580623424492 0.90154562843385544
