3
Lattice="37.794516672147068 0.0000000000000000 0.0000000000000000 0.0000000000000000 37.794516672147068 0.0000000000000000 0.0000000000000000 0.0000000000000000 11.338355001644119" Properties=species:S:1:pos:R:3:dipoles:R:3
Fe 0.0000000000000000 0.0000000000000000 -2.0000000000000000 -1.0163747612527427 -2.3646560540110508 1.8675610005880316
Fe 0.0000000000000000 0.0000000000000000 0.0000000000000000 1.4978990509632319 -1.7356671887820629 2.2036691772833765
Fe 0.0000000000000000 0.0000000000000000 2.0000000000000000 2.9980071072351757 7.8032220504321056E-002 1.0574801925003474
