3
Lattice="37.794516672147068 0.0000000000000000 0.0000000000000000 0.0000000000000000 37.794516672147068 0.0000000000000000 0.0000000000000000 0.0000000000000000 11.338355001644119" Properties=species:S:1:pos:R:3:dipoles:R:3
Fe 0.0000000000000000 0.0000000000000000 -2.0000000000000000 -1.0414729539515708 -2.3655657504822605 1.8525206520664557
Fe 0.0000000000000000 0.0000000000000000 0.0000000000000000 1.4971159300880041 -1.7437422432238536 2.1978186642835977
Fe 0.0000000000000000 0.0000000000000000 2.0000000000000000 3.0042273782149675 8.8687134188474112E-002 1.0388226278884420
