3
Lattice="37.794516672147068 0.0000000000000000 0.0000000000000000 0.0000000000000000 37.794516672147068 0.0000000000000000 0.0000000000000000 0.0000000000000000 11.338355001644119" Properties=species:S:1:pos:R:3:dipoles:R:3
Fe 0.0000000000000000 0.0000000000000000 -2.0000000000000000 -1.0257598000232386 -2.3670025355529378 1.8594396546654264
Fe 0.0000000000000000 0.0000000000000000 0.0000000000000000 1.4973727862966555 -1.7406868672582956 2.2000645374653596
Fe 0.0000000000000000 0.0000000000000000 2.0000000000000000 3.0001298676974244 8.1343342405842609E-002 1.0511917225682845
