3
Lattice="37.794516672147068 0.0000000000000000 0.0000000000000000 0.0000000000000000 37.794516672147068 0.0000000000000000 0.0000000000000000 0.0000000000000000 11.338355001644119" Properties=species:S:1:pos:R:3:dipoles:R:3
Fe 0.0000000000000000 0.0000000000000000 -2.0000000000000000 -1.0524781347769998 -2.3635872507932469 1.8488226209412264
Fe 0.0000000000000000 0.0000000000000000 0.0000000000000000 1.4971141517651698 -1.7449406094929960 2.1968685636438585
Fe 0.0000000000000000 0.0000000000000000 2.0000000000000000 3.0071353696759027 9.4110510759041491E-002 1.0298932372866758
