3
Lattice="37.794516672147068 0.0000000000000000 0.0000000000000000 0.0000000000000000 37.794516672147068 0.0000000000000000 0.0000000000000000 0.0000000000000000 11.338355001644119" Properties=species:S:1:pos:R:3:dipoles:R:3
Fe 0.0000000000000000 0.0000000000000000 -2.0000000000000000 -2.1730648336106677 -1.5874935841778681 1.6941231800311243
Fe 0.0000000000000000 0.0000000000000000 0.0000000000000000 1.4902711104759014 -1.9798620686910831 1.9928969381880210
Fe 0.0000000000000000 0.0000000000000000 2.0000000000000000 3.0370249510837830 0.94280169436101269 -2.1003819992995681E-003
