3
Lattice="37.794516672147068 0.0000000000000000 0.0000000000000000 0.0000000000000000 37.794516672147068 0.0000000000000000 0.0000000000000000 0.0000000000000000 11.338355001644119" Properties=species:S:1:pos:R:3:dipoles:R:3
Fe 0.0000000000000000 0.0000000000000000 -2.0000000000000000 -2.0724261685627114 -1.7179562615134796 1.6929489240325923
Fe 0.0000000000000000 0.0000000000000000 0.0000000000000000 1.5126024391753088 -1.9273355455388661 2.0272670164295836
Fe 0.0000000000000000 0.0000000000000000 2.0000000000000000 3.0710588644289305 0.81711603776525321 0.11540724431029409
