3
Lattice="37.794516672147068 0.0000000000000000 0.0000000000000000 0.0000000000000000 37.794516672147068 0.0000000000000000 0.0000000000000000 0.0000000000000000 11.338355001644119" Properties=species:S:1:pos:R:3:dipoles:R:3
Fe 0.0000000000000000 0.0000000000000000 -2.0000000000000000 -1.0132164412401095 -2.3586983581583230 1.8767883467301227
Fe 0.0000000000000000 0.0000000000000000 0.0000000000000000 1.4985975845180894 -1.7288598807521816 2.2085399684864395
Fe 0.0000000000000000 0.0000000000000000 2.0000000000000000 2.9979022043669574 7.8698354743401019E-002 1.0577281985521634
