3
Lattice="37.794516672147068 0.0000000000000000 0.0000000000000000 0.0000000000000000 37.794516672147068 0.0000000000000000 0.0000000000000000 0.0000000000000000 11.338355001644119" Properties=species:S:1:pos:R:3:dipoles:R:3
Fe 0.0000000000000000 0.0000000000000000 -2.0000000000000000 -1.6661572972822860 -2.0830104519351549 1.7312964269130449
Fe 0.0000000000000000 0.0000000000000000 0.0000000000000000 1.5290790987127356 -1.8005814764181887 2.1289019368349340
Fe 0.0000000000000000 0.0000000000000000 2.0000000000000000 3.1050755717797367 0.45496276076127340 0.51372617205785542
