3
Lattice="37.794516672147068 0.0000000000000000 0.0000000000000000 0.0000000000000000 37.794516672147068 0.0000000000000000 0.0000000000000000 0.0000000000000000 11.338355001644119" Properties=species:S:1:pos:R:3:dipoles:R:3
Fe 0.0000000000000000 0.0000000000000000 -2.0000000000000000 -1.0133848311101517 -2.3594521763811707 1.8757496132069531
Fe 0.0000000000000000 0.0000000000000000 0.0000000000000000 1.4985164360121910 -1.7296529567101371 2.2079739899611992
Fe 0.0000000000000000 0.0000000000000000 2.0000000000000000 2.9978553337402505 7.8513947970635531E-002 1.0578747364122101
