3
Lattice="37.794516672147068 0.0000000000000000 0.0000000000000000 0.0000000000000000 37.794516672147068 0.0000000000000000 0.0000000000000000 0.0000000000000000 11.338355001644119" Properties=species:S:1:pos:R:3:dipoles:R:3
Fe 0.0000000000000000 0.0000000000000000 -2.0000000000000000 -1.0219038793206605 -2.3667186210687037 1.8619225091598466
Fe 0.0000000000000000 0.0000000000000000 0.0000000000000000 1.4975179161974890 -1.7393024608303735 2.2010604354303629
Fe 0.0000000000000000 0.0000000000000000 2.0000000000000000 2.9991814398233769 7.9748655204301452E-002 1.0540165288135133
