3
Lattice="37.794516672147068 0.0000000000000000 0.0000000000000000 0.0000000000000000 37.794516672147068 0.0000000000000000 0.0000000000000000 0.0000000000000000 11.338355001644119" Properties=species:S:1:pos:R:3:dipoles:R:3
Fe 0.0000000000000000 0.0000000000000000 -2.0000000000000000 -1.3135672066005637 -2.2753505133375591 1.7915694893578895
Fe 0.0000000000000000 0.0000000000000000 0.0000000000000000 1.5098535472575503 -1.7576397190664459 2.1779451057806347
Fe 0.0000000000000000 0.0000000000000000 2.0000000000000000 3.0646708189810958 0.23330031907489102 0.81594346152492503
