3
Lattice="37.794516672147068 0.0000000000000000 0.0000000000000000 0.0000000000000000 37.794516672147068 0.0000000000000000 0.0000000000000000 0.0000000000000000 11.338355001644119" Properties=species:S:1:pos:R:3:dipoles:R:3
Fe 0.0000000000000000 0.0000000000000000 -2.0000000000000000 -2.3297879921576889 -1.3231253221675581 1.7128418763671258
Fe 0.0000000000000000 0.0000000000000000 0.0000000000000000 1.4211131619277062 -2.0900749805752241 1.9298766687457800
Fe 0.0000000000000000 0.0000000000000000 2.0000000000000000 2.9381219364700186 1.1967416767689885 -0.21828615512166893
