3
Lattice="37.794516672147068 0.0000000000000000 0.0000000000000000 0.0000000000000000 37.794516672147068 0.0000000000000000 0.0000000000000000 0.0000000000000000 11.338355001644119" Properties=species:S:1:pos:R:3:dipoles:R:3
Fe 0.0000000000000000 0.0000000000000000 -2.0000000000000000 -2.3932676128409280 -1.1786281416960922 1.7307529681987301
Fe 0.0000000000000000 0.0000000000000000 0.0000000000000000 1.3706192119421798 -2.1505236459104342 1.8997502531214707
Fe 0.0000000000000000 0.0000000000000000 2.0000000000000000 2.8676077443648951 1.3352009660677955 -0.32628852978626421
