3
Lattice="37.794516672147068 0.0000000000000000 0.0000000000000000 0.0000000000000000 37.794516672147068 0.0000000000000000 0.0000000000000000 0.0000000000000000 11.338355001644119" Properties=species:S:1:pos:R:3:dipoles:R:3
Fe 0.0000000000000000 0.0000000000000000 -2.0000000000000000 -2.0518937286936096 -1.7419648819410398 1.6934256630369047
Fe 0.0000000000000000 0.0000000000000000 0.0000000000000000 1.5157986303273752 -1.9179400592592404 2.0337798409332102
Fe 0.0000000000000000 0.0000000000000000 2.0000000000000000 3.0762059020912464 0.79391743972071294 0.13803023888368735
