3
Lattice="37.794516672147068 0.0000000000000000 0.0000000000000000 0.0000000000000000 37.794516672147068 0.0000000000000000 0.0000000000000000 0.0000000000000000 11.338355001644119" Properties=species:S:1:pos:R:3:dipoles:R:3
Fe 0.0000000000000000 0.0000000000000000 -2.0000000000000000 -1.0132831848435293 -2.3590135243780934 1.8763561439968275
Fe 0.0000000000000000 0.0000000000000000 0.0000000000000000 1.4985637448776838 -1.7291903309052461 2.2083042141068256
Fe 0.0000000000000000 0.0000000000000000 2.0000000000000000 2.9978816483712816 7.8619716441937049E-002 1.0577923059586254
