3
Lattice="37.794516672147068 0.0000000000000000 0.0000000000000000 0.0000000000000000 37.794516672147068 0.0000000000000000 0.0000000000000000 0.0000000000000000 11.338355001644119" Properties=species:S:1:pos:R:3:dipoles:R:3
Fe 0.0000000000000000 0.0000000000000000 -2.0000000000000000 -2.4216338315459791 -1.1011348171466893 1.7422949521763758
Fe 0.0000000000000000 0.0000000000000000 0.0000000000000000 1.3407900782445699 -2.1824135114398677 1.8846095699549099
Fe 0.0000000000000000 0.0000000000000000 2.0000000000000000 2.8250840653189422 1.4092014559134975 -0.38138075532498739
