3
Lattice="37.794516672147068 0.0000000000000000 0.0000000000000000 0.0000000000000000 37.794516672147068 0.0000000000000000 0.0000000000000000 0.0000000000000000 11.338355001644119" Properties=species:S:1:pos:R:3:dipoles:R:3
Fe 0.0000000000000000 0.0000000000000000 -2.0000000000000000 -1.0139588052578730 -2.3612898073949302 1.8731251924879120
Fe 0.0000000000000000 0.0000000000000000 0.0000000000000000 1.4983121845092260 -1.7316356317217534 2.2065580972869880
Fe 0.0000000000000000 0.0000000000000000 2.0000000000000000 2.9977839322775415 7.8134043695302205E-002 1.0581051774726542
