3
Lattice="37.794516672147068 0.0000000000000000 0.0000000000000000 0.0000000000000000 37.794516672147068 0.0000000000000000 0.0000000000000000 0.0000000000000000 11.338355001644119" Properties=species:S:1:pos:R:3:dipoles:R:3
Fe 0.0000000000000000 0.0000000000000000 -2.0000000000000000 -1.0161933734607873 -2.3645087752205889 1.8678461605922667
Fe 0.0000000000000000 0.0000000000000000 0.0000000000000000 1.4979195362071227 -1.7354688177625848 2.2038114814164009
Fe 0.0000000000000000 0.0000000000000000 2.0000000000000000 2.9979778421355556 7.8003499607839130E-002 1.0575652755802831
