3
Lattice="37.794516672147068 0.0000000000000000 0.0000000000000000 0.0000000000000000 37.794516672147068 0.0000000000000000 0.0000000000000000 0.0000000000000000 11.338355001644119" Properties=species:S:1:pos:R:3:dipoles:R:3
Fe 0.0000000000000000 0.0000000000000000 -2.0000000000000000 -1.0591270677585984 -2.3622034436827093 1.8467930975056894
Fe 0.0000000000000000 0.0000000000000000 0.0000000000000000 1.4971639498556175 -1.7454977062849755 2.1963920106862935
Fe 0.0000000000000000 0.0000000000000000 2.0000000000000000 3.0088848707264981 9.7434352190613846E-002 1.0244600439872571
