3
Lattice="37.794516672147068 0.0000000000000000 0.0000000000000000 0.0000000000000000 37.794516672147068 0.0000000000000000 0.0000000000000000 0.0000000000000000 11.338355001644119" Properties=species:S:1:pos:R:3:dipoles:R:3
Fe 0.0000000000000000 0.0000000000000000 -2.0000000000000000 -1.5654296525317046 -2.1470309864506389 1.7470225946435991
Fe 0.0000000000000000 0.0000000000000000 0.0000000000000000 1.5247858268239372 -1.7837138470624236 2.1461111560482138
Fe 0.0000000000000000 0.0000000000000000 2.0000000000000000 3.0984118350316758 0.38619261745457761 0.60257726704482817
