3
Lattice="37.794516672147068 0.0000000000000000 0.0000000000000000 0.0000000000000000 37.794516672147068 0.0000000000000000 0.0000000000000000 0.0000000000000000 11.338355001644119" Properties=species:S:1:pos:R:3:dipoles:R:3
Fe 0.0000000000000000 0.0000000000000000 -2.0000000000000000 -2.4940383776195305 -0.82217147477607366 1.7933785537430409
Fe 0.0000000000000000 0.0000000000000000 0.0000000000000000 1.2189014757687424 -2.2919575544901152 1.8367388929253012
Fe 0.0000000000000000 0.0000000000000000 2.0000000000000000 2.6457021398787628 1.6722723670466000 -0.56228579695140912
