3
Lattice="37.794516672147068 0.0000000000000000 0.0000000000000000 0.0000000000000000 37.794516672147068 0.0000000000000000 0.0000000000000000 0.0000000000000000 11.338355001644119" Properties=species:S:1:pos:R:3:dipoles:R:3
Fe 0.0000000000000000 0.0000000000000000 -2.0000000000000000 -1.1675852080587528 -2.3311798866606304 1.8206441491821841
Fe 0.0000000000000000 0.0000000000000000 0.0000000000000000 1.5010669954417055 -1.7502448213020412 2.1899408532426134
Fe 0.0000000000000000 0.0000000000000000 2.0000000000000000 3.0353464795400811 0.15346678666741284 0.93569209387147856
