3
Lattice="37.794516672147068 0.0000000000000000 0.0000000000000000 0.0000000000000000 37.794516672147068 0.0000000000000000 0.0000000000000000 0.0000000000000000 11.338355001644119" Properties=species:S:1:pos:R:3:dipoles:R:3
Fe 0.0000000000000000 0.0000000000000000 -2.0000000000000000 -1.0318922672609305 -2.3667587073121426 1.8563543762248873
Fe 0.0000000000000000 0.0000000000000000 0.0000000000000000 1.4972257990714437 -1.7421932152736690 2.1989719659989397
Fe 0.0000000000000000 0.0000000000000000 2.0000000000000000 3.0017063334980589 8.4111043566091559E-002 1.0464628133803271
