3
Lattice="37.794516672147068 0.0000000000000000 0.0000000000000000 0.0000000000000000 37.794516672147068 0.0000000000000000 0.0000000000000000 0.0000000000000000 11.338355001644119" Properties=species:S:1:pos:R:3:dipoles:R:3
Fe 0.0000000000000000 0.0000000000000000 -2.0000000000000000 -1.0843952896595479 -2.3561435956184700 1.8398571174388190
Fe 0.0000000000000000 0.0000000000000000 0.0000000000000000 1.4976271211648413 -1.7470237444032124 2.1948624199349855
Fe 0.0000000000000000 0.0000000000000000 2.0000000000000000 3.0154184855258741 0.11023398115657003 1.0037429085912415
