3
Lattice="37.794516672147068 0.0000000000000000 0.0000000000000000 0.0000000000000000 37.794516672147068 0.0000000000000000 0.0000000000000000 0.0000000000000000 11.338355001644119" Properties=species:S:1:pos:R:3:dipoles:R:3
Fe 0.0000000000000000 0.0000000000000000 -2.0000000000000000 -1.0188735633618482 -2.3659970879684940 1.8644984423718323
Fe 0.0000000000000000 0.0000000000000000 0.0000000000000000 1.4976857815069264 -1.7377167909101627 2.2021983685537587
Fe 0.0000000000000000 0.0000000000000000 2.0000000000000000 2.9984908084865700 7.8666372270139881E-002 1.0560608284068813
