3
Lattice="37.794516672147068 0.0000000000000000 0.0000000000000000 0.0000000000000000 37.794516672147068 0.0000000000000000 0.0000000000000000 0.0000000000000000 11.338355001644119" Properties=species:S:1:pos:R:3:dipoles:R:3
Fe 0.0000000000000000 0.0000000000000000 -2.0000000000000000 -1.0660064151794157 -2.3606635773090492 1.8448029156424304
Fe 0.0000000000000000 0.0000000000000000 0.0000000000000000 1.4972505085468057 -1.7459871538132046 2.1959439367560263
Fe 0.0000000000000000 0.0000000000000000 2.0000000000000000 3.0106833256757186 0.10089665785760443 1.0188256852530553
