3
Lattice="37.794516672147068 0.0000000000000000 0.0000000000000000 0.0000000000000000 37.794516672147068 0.0000000000000000 0.0000000000000000 0.0000000000000000 11.338355001644119" Properties=species:S:1:pos:R:3:dipoles:R:3
Fe 0.0000000000000000 0.0000000000000000 -2.0000000000000000 -2.3704442907706746 -1.2344109688131815 1.7232595348427431
Fe 0.0000000000000000 0.0000000000000000 0.0000000000000000 1.3909775186856626 -2.1273044511370216 1.9110618291106376
Fe 0.0000000000000000 0.0000000000000000 2.0000000000000000 2.8961923373800644 1.2818020065315217 -0.28540070243911919
