3
Lattice="37.794516672147068 0.0000000000000000 0.0000000000000000 0.0000000000000000 37.794516672147068 0.0000000000000000 0.0000000000000000 0.0000000000000000 11.338355001644119" Properties=species:S:1:pos:R:3:dipoles:R:3
Fe 0.0000000000000000 0.0000000000000000 -2.0000000000000000 -1.0164372084919957 -2.3647045711757055 1.8674655799381621
Fe 0.0000000000000000 0.0000000000000000 0.0000000000000000 1.4978922176199370 -1.7357333113521360 2.2036217407386758
Fe 0.0000000000000000 0.0000000000000000 2.0000000000000000 2.9980174402671844 7.8042866037221270E-002 1.0574501117851973
