3
Lattice="37.794516672147068 0.0000000000000000 0.0000000000000000 0.0000000000000000 37.794516672147068 0.0000000000000000 0.0000000000000000 0.0000000000000000 11.338355001644119" Properties=species:S:1:pos:R:3:dipoles:R:3
Fe 0.0000000000000000 0.0000000000000000 -2.0000000000000000 -1.0140069352803780 -2.3614093292410989 1.8729484549705142
Fe 0.0000000000000000 0.0000000000000000 0.0000000000000000 1.4982986586639337 -1.7317678176014821 2.2064635404569075
Fe 0.0000000000000000 0.0000000000000000 2.0000000000000000 2.9977821195367063 7.8114001041882430E-002 1.0581117930669035
