3
Lattice="37.794516672147068 0.0000000000000000 0.0000000000000000 0.0000000000000000 37.794516672147068 0.0000000000000000 0.0000000000000000 0.0000000000000000 11.338355001644119" Properties=species:S:1:pos:R:3:dipoles:R:3
Fe 0.0000000000000000 0.0000000000000000 -2.0000000000000000 -1.2628739771890241 -2.2962760338132338 1.8012955599439306
Fe 0.0000000000000000 0.0000000000000000 0.0000000000000000 1.5066508648941579 -1.7545682081187475 2.1826345489734744
Fe 0.0000000000000000 0.0000000000000000 2.0000000000000000 3.0552725188687204 0.20496157639566839 0.85772990366838242
