3
Lattice="37.794516672147068 0.0000000000000000 0.0000000000000000 0.0000000000000000 37.794516672147068 0.0000000000000000 0.0000000000000000 0.0000000000000000 11.338355001644119" Properties=species:S:1:pos:R:3:dipoles:R:3
Fe 0.0000000000000000 0.0000000000000000 -2.0000000000000000 -1.4661957303208792 -2.2026352091861927 1.7638220476119779
Fe 0.0000000000000000 0.0000000000000000 0.0000000000000000 1.5193439481630813 -1.7710157117650462 2.1604391488448758
Fe 0.0000000000000000 0.0000000000000000 2.0000000000000000 3.0878238785014558 0.32320149611575771 0.68795674883291547
