3
Lattice="37.794516672147068 0.0000000000000000 0.0000000000000000 0.0000000000000000 37.794516672147068 0.0000000000000000 0.0000000000000000 0.0000000000000000 11.338355001644119" Properties=species:S:1:pos:R:3:dipoles:R:3
Fe 0.0000000000000000 0.0000000000000000 -2.0000000000000000 -1.0249166289831670 -2.3669798771777399 1.8599333764061197
Fe 0.0000000000000000 0.0000000000000000 0.0000000000000000 1.4974000433893895 -1.7404236335534278 2.2002542320891267
Fe 0.0000000000000000 0.0000000000000000 2.0000000000000000 2.9999183910044560 8.0981310251816929E-002 1.0518230244214735
