3
Lattice="37.794516672147068 0.0000000000000000 0.0000000000000000 0.0000000000000000 37.794516672147068 0.0000000000000000 0.0000000000000000 0.0000000000000000 11.338355001644119" Properties=species:S:1:pos:R:3:dipoles:R:3
Fe 0.0000000000000000 0.0000000000000000 -2.0000000000000000 -1.0132425849564901 -2.3588245997236275 1.8766155631267123
Fe 0.0000000000000000 0.0000000000000000 0.0000000000000000 1.4985840437170521 -1.7289920614845018 2.2084456785803477
Fe 0.0000000000000000 0.0000000000000000 2.0000000000000000 2.9978938152925467 7.8666608184168138E-002 1.0577543367850040
