3
Lattice="37.794516672147068 0.0000000000000000 0.0000000000000000 0.0000000000000000 37.794516672147068 0.0000000000000000 0.0000000000000000 0.0000000000000000 11.338355001644119" Properties=species:S:1:pos:R:3:dipoles:R:3
Fe 0.0000000000000000 0.0000000000000000 -2.0000000000000000 -1.0199913306499444 -2.3663393542681792 1.8634526411585235
Fe 0.0000000000000000 0.0000000000000000 0.0000000000000000 1.4976157771453822 -1.7383776008847291 2.2017243925585785
Fe 0.0000000000000000 0.0000000000000000 2.0000000000000000 2.9987368748123120 7.9039275415246746E-002 1.0553340459696869
