3
Lattice="37.794516672147068 0.0000000000000000 0.0000000000000000 0.0000000000000000 37.794516672147068 0.0000000000000000 0.0000000000000000 0.0000000000000000 11.338355001644119" Properties=species:S:1:pos:R:3:dipoles:R:3
Fe 0.0000000000000000 0.0000000000000000 -2.0000000000000000 -1.0146812900537983 -2.3627480160233572 1.8708938217847908
Fe 0.0000000000000000 0.0000000000000000 0.0000000000000000 1.4981434469057426 -1.7332879620380024 2.2053750368469078
Fe 0.0000000000000000 0.0000000000000000 2.0000000000000000 2.9977969048783413 7.7948253258393552E-002 1.0580821267348868
