3
Lattice="37.794516672147068 0.0000000000000000 0.0000000000000000 0.0000000000000000 37.794516672147068 0.0000000000000000 0.0000000000000000 0.0000000000000000 11.338355001644119" Properties=species:S:1:pos:R:3:dipoles:R:3
Fe 0.0000000000000000 0.0000000000000000 -2.0000000000000000 -1.0181938100484051 -2.3657277431987649 1.8652114116739795
Fe 0.0000000000000000 0.0000000000000000 0.0000000000000000 1.4977340606843066 -1.7372542513771225 2.2025304423635497
Fe 0.0000000000000000 0.0000000000000000 2.0000000000000000 2.9983481219711248 7.8460725305346340E-002 1.0564811659735340
