3
Lattice="37.794516672147068 0.0000000000000000 0.0000000000000000 0.0000000000000000 37.794516672147068 0.0000000000000000 0.0000000000000000 0.0000000000000000 11.338355001644119" Properties=species:S:1:pos:R:3:dipoles:R:3
Fe 0.0000000000000000 0.0000000000000000 -2.0000000000000000 -1.0124885174806098 -2.3524616012239354 1.8849910919516013
Fe 0.0000000000000000 0.0000000000000000 0.0000000000000000 1.4992554320202813 -1.7225121026099885 2.2130488485164053
Fe 0.0000000000000000 0.0000000000000000 2.0000000000000000 2.9984677320899045 8.0492661167135771E-002 1.0559887267929691
