3
Lattice="37.794516672147068 0.0000000000000000 0.0000000000000000 0.0000000000000000 37.794516672147068 0.0000000000000000 0.0000000000000000 0.0000000000000000 11.338355001644119" Properties=species:S:1:pos:R:3:dipoles:R:3
Fe 0.0000000000000000 0.0000000000000000 -2.0000000000000000 -1.1704446812953098 -2.3302215936960922 1.8200347722777053
Fe 0.0000000000000000 0.0000000000000000 0.0000000000000000 1.5012180626989156 -1.7503533843107615 2.1897505242055244
Fe 0.0000000000000000 0.0000000000000000 2.0000000000000000 3.0359882973621897 0.15498023051947346 0.93335748051212508
