3
Lattice="37.794516672147068 0.0000000000000000 0.0000000000000000 0.0000000000000000 37.794516672147068 0.0000000000000000 0.0000000000000000 0.0000000000000000 11.338355001644119" Properties=species:S:1:pos:R:3:dipoles:R:3
Fe 0.0000000000000000 0.0000000000000000 -2.0000000000000000 -1.6101912701454544 -2.1195811862958243 1.7398447253269893
Fe 0.0000000000000000 0.0000000000000000 0.0000000000000000 1.5268867469510292 -1.7906716765637656 2.1388108398681740
Fe 0.0000000000000000 0.0000000000000000 2.0000000000000000 3.1019131465378429 0.41607851659550427 0.56339462134757712
