3
Lattice="37.794516672147068 0.0000000000000000 0.0000000000000000 0.0000000000000000 37.794516672147068 0.0000000000000000 0.0000000000000000 0.0000000000000000 11.338355001644119" Properties=species:S:1:pos:R:3:dipoles:R:3
Fe 0.0000000000000000 0.0000000000000000 -2.0000000000000000 -1.0130847246698260 -2.3580001788340956 1.8777365356351432
Fe 0.0000000000000000 0.0000000000000000 0.0000000000000000 1.4986721929377360 -1.7281328524784436 2.2090582840432025
Fe 0.0000000000000000 0.0000000000000000 2.0000000000000000 2.9979519941387425 7.8879289243912631E-002 1.0575735901429764
