3
Lattice="37.794516672147068 0.0000000000000000 0.0000000000000000 0.0000000000000000 37.794516672147068 0.0000000000000000 0.0000000000000000 0.0000000000000000 11.338355001644119" Properties=species:S:1:pos:R:3:dipoles:R:3
Fe 0.0000000000000000 0.0000000000000000 -2.0000000000000000 -1.0134476159432138 -2.3597013677173875 1.8754021928460431
Fe 0.0000000000000000 0.0000000000000000 0.0000000000000000 1.4984894356134300 -1.7299173162259911 2.2077852002349290
Fe 0.0000000000000000 0.0000000000000000 2.0000000000000000 2.9978417033067029 7.8455995281603283E-002 1.0579176615973200
