3
Lattice="37.794516672147068 0.0000000000000000 0.0000000000000000 0.0000000000000000 37.794516672147068 0.0000000000000000 0.0000000000000000 0.0000000000000000 11.338355001644119" Properties=species:S:1:pos:R:3:dipoles:R:3
Fe 0.0000000000000000 0.0000000000000000 -2.0000000000000000 -1.0405126691311075 -2.3657136003559538 1.8528714327952083
Fe 0.0000000000000000 0.0000000000000000 0.0000000000000000 1.4971219857479205 -1.7436144075571445 2.1979159577994136
Fe 0.0000000000000000 0.0000000000000000 2.0000000000000000 3.0039737820588073 8.8220987977595783E-002 1.0395953895547796
