3
Lattice="37.794516672147068 0.0000000000000000 0.0000000000000000 0.0000000000000000 37.794516672147068 0.0000000000000000 0.0000000000000000 0.0000000000000000 11.338355001644119" Properties=species:S:1:pos:R:3:dipoles:R:3
Fe 0.0000000000000000 0.0000000000000000 -2.0000000000000000 -1.0952460935583301 -2.3532605443169583 1.8371175262095478
Fe 0.0000000000000000 0.0000000000000000 0.0000000000000000 1.4979343091531274 -1.7475207144601022 2.1942570856658445
Fe 0.0000000000000000 0.0000000000000000 2.0000000000000000 3.0181579458868240 0.11578624147064963 0.99484479189786779
