3
Lattice="37.794516672147068 0.0000000000000000 0.0000000000000000 0.0000000000000000 37.794516672147068 0.0000000000000000 0.0000000000000000 0.0000000000000000 11.338355001644119" Properties=species:S:1:pos:R:3:dipoles:R:3
Fe 0.0000000000000000 0.0000000000000000 -2.0000000000000000 -1.0126527517795978 -2.3545687249057430 1.8822700454528321
Fe 0.0000000000000000 0.0000000000000000 0.0000000000000000 1.4990347435443714 -1.7246286983146337 2.2115493868770875
Fe 0.0000000000000000 0.0000000000000000 2.0000000000000000 2.9982543115410567 7.9855576251152735E-002 1.0566428773559411
