3
Lattice="37.794516672147068 0.0000000000000000 0.0000000000000000 0.0000000000000000 37.794516672147068 0.0000000000000000 0.0000000000000000 0.0000000000000000 11.338355001644119" Properties=species:S:1:pos:R:3:dipoles:R:3
Fe 0.0000000000000000 0.0000000000000000 -2.0000000000000000 -1.2820805941892117 -2.2885352891914863 1.7975749164161889
Fe 0.0000000000000000 0.0000000000000000 0.0000000000000000 1.5078566482254729 -1.7556607694705648 2.1809226467126854
Fe 0.0000000000000000 0.0000000000000000 2.0000000000000000 3.0589310205917939 0.21561791313719189 0.84193225784239523
