3
Lattice="37.794516672147068 0.0000000000000000 0.0000000000000000 0.0000000000000000 37.794516672147068 0.0000000000000000 0.0000000000000000 0.0000000000000000 11.338355001644119" Properties=species:S:1:pos:R:3:dipoles:R:3
Fe 0.0000000000000000 0.0000000000000000 -2.0000000000000000 -1.0129708612797037 -2.3572961911312715 1.8786816392024197
Fe 0.0000000000000000 0.0000000000000000 0.0000000000000000 1.4987470199647881 -1.7274057558151872 2.2095761414631574
Fe 0.0000000000000000 0.0000000000000000 2.0000000000000000 2.9980072074980053 7.9069575895204788E-002 1.0574028494182142
