3
Lattice="37.794516672147068 0.0000000000000000 0.0000000000000000 0.0000000000000000 37.794516672147068 0.0000000000000000 0.0000000000000000 0.0000000000000000 11.338355001644119" Properties=species:S:1:pos:R:3:dipoles:R:3
Fe 0.0000000000000000 0.0000000000000000 -2.0000000000000000 -2.2590246244367425 -1.4544948784623786 1.7010738945487236
Fe 0.0000000000000000 0.0000000000000000 0.0000000000000000 1.4594202286053970 -2.0349754277252532 1.9599407146370003
Fe 0.0000000000000000 0.0000000000000000 2.0000000000000000 2.9921811171925978 1.0706249379546333 -0.11408069137975545
