3
Lattice="37.794516672147068 0.0000000000000000 0.0000000000000000 0.0000000000000000 37.794516672147068 0.0000000000000000 0.0000000000000000 0.0000000000000000 11.338355001644119" Properties=species:S:1:pos:R:3:dipoles:R:3
Fe 0.0000000000000000 0.0000000000000000 -2.0000000000000000 -1.2537814136505674 -2.2998601830778207 1.8030738490360327
Fe 0.0000000000000000 0.0000000000000000 0.0000000000000000 1.5060852604993638 -1.7540798486654685 2.1834172923681532
Fe 0.0000000000000000 0.0000000000000000 2.0000000000000000 3.0534990469522820 0.19995023133809098 0.86519562831150199
