3
Lattice="37.794516672147068 0.0000000000000000 0.0000000000000000 0.0000000000000000 37.794516672147068 0.0000000000000000 0.0000000000000000 0.0000000000000000 11.338355001644119" Properties=species:S:1:pos:R:3:dipoles:R:3
Fe 0.0000000000000000 0.0000000000000000 -2.0000000000000000 -1.0132970999801729 -2.3590763789069671 1.8762696036697419
Fe 0.0000000000000000 0.0000000000000000 0.0000000000000000 1.4985569812099946 -1.7292564209157548 2.2082570513389985
Fe 0.0000000000000000 0.0000000000000000 2.0000000000000000 2.9978777073445335 7.8604286892840297E-002 1.0578046217939978
