3
Lattice="37.794516672147068 0.0000000000000000 0.0000000000000000 0.0000000000000000 37.794516672147068 0.0000000000000000 0.0000000000000000 0.0000000000000000 11.338355001644119" Properties=species:S:1:pos:R:3:dipoles:R:3
Fe 0.0000000000000000 0.0000000000000000 -2.0000000000000000 -1.0204930109864423 -2.3664605616694456 1.8630240000040330
Fe 0.0000000000000000 0.0000000000000000 0.0000000000000000 1.4975877625454410 -1.7386419435072176 2.2015347114573385
Fe 0.0000000000000000 0.0000000000000000 2.0000000000000000 2.9988510715453733 7.9217861035217205E-002 1.0549961048194423
