3
Lattice="37.794516672147068 0.0000000000000000 0.0000000000000000 0.0000000000000000 37.794516672147068 0.0000000000000000 0.0000000000000000 0.0000000000000000 11.338355001644119" Properties=species:S:1:pos:R:3:dipoles:R:3
Fe 0.0000000000000000 0.0000000000000000 -2.0000000000000000 -1.0134001922836942 -2.3595145782887363 1.8756628175453942
Fe 0.0000000000000000 0.0000000000000000 0.0000000000000000 1.4985096839085299 -1.7297190460615102 2.2079267988147597
Fe 0.0000000000000000 0.0000000000000000 2.0000000000000000 2.9978518261198484 7.8499282287297578E-002 1.0578857647734357
