3
Lattice="37.794516672147068 0.0000000000000000 0.0000000000000000 0.0000000000000000 37.794516672147068 0.0000000000000000 0.0000000000000000 0.0000000000000000 11.338355001644119" Properties=species:S:1:pos:R:3:dipoles:R:3
Fe 0.0000000000000000 0.0000000000000000 -2.0000000000000000 -1.0332268309099502 -2.3666377356178021 1.8557661879228362
Fe 0.0000000000000000 0.0000000000000000 0.0000000000000000 1.4972030139760943 -1.7424534477112759 2.1987812800503730
Fe 0.0000000000000000 0.0000000000000000 2.0000000000000000 3.0020549691871099 8.4734985000283050E-002 1.0454118539102140
