3
Lattice="37.794516672147068 0.0000000000000000 0.0000000000000000 0.0000000000000000 37.794516672147068 0.0000000000000000 0.0000000000000000 0.0000000000000000 11.338355001644119" Properties=species:S:1:pos:R:3:dipoles:R:3
Fe 0.0000000000000000 0.0000000000000000 -2.0000000000000000 -1.0134157741782763 -2.3595769113944649 1.8755759829611904
Fe 0.0000000000000000 0.0000000000000000 0.0000000000000000 1.4985029332765092 -1.7297851356668201 2.2078796034629673
Fe 0.0000000000000000 0.0000000000000000 2.0000000000000000 2.9978483844751755 7.8484733589456790E-002 1.0578965971648535
