3
Lattice="37.794516672147068 0.0000000000000000 0.0000000000000000 0.0000000000000000 37.794516672147068 0.0000000000000000 0.0000000000000000 0.0000000000000000 11.338355001644119" Properties=species:S:1:pos:R:3:dipoles:R:3
Fe 0.0000000000000000 0.0000000000000000 -2.0000000000000000 -1.1148777276249466 -2.3477202558007777 1.8323911299033750
Fe 0.0000000000000000 0.0000000000000000 0.0000000000000000 1.4986211207686551 -1.7483091152782904 2.1931598149293441
Fe 0.0000000000000000 0.0000000000000000 2.0000000000000000 3.0230069249321896 0.12589897411923950 0.97876380201135660
