3
Lattice="37.794516672147068 0.0000000000000000 0.0000000000000000 0.0000000000000000 37.794516672147068 0.0000000000000000 0.0000000000000000 0.0000000000000000 11.338355001644119" Properties=species:S:1:pos:R:3:dipoles:R:3
Fe 0.0000000000000000 0.0000000000000000 -2.0000000000000000 -2.2682012308770854 -1.4387653223894532 1.7022389736277512
Fe 0.0000000000000000 0.0000000000000000 0.0000000000000000 1.4552517047660478 -2.0415527554337425 1.9561965194111786
Fe 0.0000000000000000 0.0000000000000000 2.0000000000000000 2.9862162209860683 1.0857326341612907 -0.12687524832236055
