3
Lattice="37.794516672147068 0.0000000000000000 0.0000000000000000 0.0000000000000000 37.794516672147068 0.0000000000000000 0.0000000000000000 0.0000000000000000 11.338355001644119" Properties=species:S:1:pos:R:3:dipoles:R:3
Fe 0.0000000000000000 0.0000000000000000 -2.0000000000000000 -1.0126294023569602 -2.3543064350870022 1.8826106616053568
Fe 0.0000000000000000 0.0000000000000000 0.0000000000000000 1.4990623211209042 -1.7243641321922820 2.2117369863987806
Fe 0.0000000000000000 0.0000000000000000 2.0000000000000000 2.9982800713834332 7.9933903549032057E-002 1.0565638573263556
