3
Lattice="37.794516672147068 0.0000000000000000 0.0000000000000000 0.0000000000000000 37.794516672147068 0.0000000000000000 0.0000000000000000 0.0000000000000000 11.338355001644119" Properties=species:S:1:pos:R:3:dipoles:R:3
Fe 0.0000000000000000 0.0000000000000000 -2.0000000000000000 -1.0856655681428860 -2.3558134916923579 1.8395306647374146
Fe 0.0000000000000000 0.0000000000000000 0.0000000000000000 1.4976601164332657 -1.7470852288597982 2.1947909647036941
Fe 0.0000000000000000 0.0000000000000000 2.0000000000000000 3.0157413169291707 0.11088250164414824 1.0027010422830080
