3
Lattice="37.794516672147068 0.0000000000000000 0.0000000000000000 0.0000000000000000 37.794516672147068 0.0000000000000000 0.0000000000000000 0.0000000000000000 11.338355001644119" Properties=species:S:1:pos:R:3:dipoles:R:3
Fe 0.0000000000000000 0.0000000000000000 -2.0000000000000000 -1.0233916685794489 -2.3668879369428155 1.8608898373189122
Fe 0.0000000000000000 0.0000000000000000 0.0000000000000000 1.4974553477368382 -1.7398963128953997 2.2006336137365796
Fe 0.0000000000000000 0.0000000000000000 2.0000000000000000 2.9995411054372170 8.0343660093281546E-002 1.0529473173313544
