3
Lattice="37.794516672147068 0.0000000000000000 0.0000000000000000 0.0000000000000000 37.794516672147068 0.0000000000000000 0.0000000000000000 0.0000000000000000 11.338355001644119" Properties=species:S:1:pos:R:3:dipoles:R:3
Fe 0.0000000000000000 0.0000000000000000 -2.0000000000000000 -1.0127424363992237 -2.3554836703748618 1.8810766693874035
Fe 0.0000000000000000 0.0000000000000000 0.0000000000000000 1.4989384974884428 -1.7255545433827137 2.2108923308380160
Fe 0.0000000000000000 0.0000000000000000 2.0000000000000000 2.9981667611502556 7.9585366769954841E-002 1.0569116527552667
