3
Lattice="37.794516672147068 0.0000000000000000 0.0000000000000000 0.0000000000000000 37.794516672147068 0.0000000000000000 0.0000000000000000 0.0000000000000000 11.338355001644119" Properties=species:S:1:pos:R:3:dipoles:R:3
Fe 0.0000000000000000 0.0000000000000000 -2.0000000000000000 -1.2771485564564757 -2.2905449296857077 1.7985259213678919
Fe 0.0000000000000000 0.0000000000000000 0.0000000000000000 1.5075458158547763 -1.7553721565825482 2.1813698001470301
Fe 0.0000000000000000 0.0000000000000000 2.0000000000000000 3.0580029147997849 0.21287224976529312 0.84599265857090455
