3
Lattice="37.794516672147068 0.0000000000000000 0.0000000000000000 0.0000000000000000 37.794516672147068 0.0000000000000000 0.0000000000000000 0.0000000000000000 11.338355001644119" Properties=species:S:1:pos:R:3:dipoles:R:3
Fe 0.0000000000000000 0.0000000000000000 -2.0000000000000000 -1.1264863055436729 -2.3442722491524730 1.8297038627264719
Fe 0.0000000000000000 0.0000000000000000 0.0000000000000000 1.4990939587220458 -1.7487402928946791 2.1924928029368016
Fe 0.0000000000000000 0.0000000000000000 2.0000000000000000 3.0258089991475097 0.13191831286967134 0.96926645428774660
