3
Lattice="37.794516672147068 0.0000000000000000 0.0000000000000000 0.0000000000000000 37.794516672147068 0.0000000000000000 0.0000000000000000 0.0000000000000000 11.338355001644119" Properties=species:S:1:pos:R:3:dipoles:R:3
Fe 0.0000000000000000 0.0000000000000000 -2.0000000000000000 -1.0126069850552522 -2.3540438162878541 1.8829510893313910
Fe 0.0000000000000000 0.0000000000000000 0.0000000000000000 1.4990899235805120 -1.7240995522968383 2.2119245318928042
Fe 0.0000000000000000 0.0000000000000000 2.0000000000000000 2.9983061277759733 8.0012664618910781E-002 1.0564839504893637
