3
Lattice="37.794516672147068 0.0000000000000000 0.0000000000000000 0.0000000000000000 37.794516672147068 0.0000000000000000 0.0000000000000000 0.0000000000000000 11.338355001644119" Properties=species:S:1:pos:R:3:dipoles:R:3
Fe 0.0000000000000000 0.0000000000000000 -2.0000000000000000 -1.0831481958821487 -2.3564656500843002 1.8401792373923918
Fe 0.0000000000000000 0.0000000000000000 0.0000000000000000 1.4975955405924073 -1.7469623876926381 2.1949328037060596
Fe 0.0000000000000000 0.0000000000000000 2.0000000000000000 3.0151009556428034 0.10959773154188472 1.0047659252396626
