3
Lattice="37.794516672147068 0.0000000000000000 0.0000000000000000 0.0000000000000000 37.794516672147068 0.0000000000000000 0.0000000000000000 0.0000000000000000 11.338355001644119" Properties=species:S:1:pos:R:3:dipoles:R:3
Fe 0.0000000000000000 0.0000000000000000 -2.0000000000000000 -1.1593285229221044 -2.3339136708261519 1.8224171731713998
Fe 0.0000000000000000 0.0000000000000000 0.0000000000000000 1.5006394852461400 -1.7499358881906595 2.1904806601617270
Fe 0.0000000000000000 0.0000000000000000 2.0000000000000000 3.0334775532369278 0.14910729491371544 0.94243352477041520
