3
Lattice="37.794516672147068 0.0000000000000000 0.0000000000000000 0.0000000000000000 37.794516672147068 0.0000000000000000 0.0000000000000000 0.0000000000000000 11.338355001644119" Properties=species:S:1:pos:R:3:dipoles:R:3
Fe 0.0000000000000000 0.0000000000000000 -2.0000000000000000 -1.0152712155323174 -2.3635767787047715 1.8695264561057066
Fe 0.0000000000000000 0.0000000000000000 0.0000000000000000 1.4980419557077294 -1.7342787748275605 2.2046649246817411
Fe 0.0000000000000000 0.0000000000000000 2.0000000000000000 2.9978506993215146 7.7920901485359920E-002 1.0579317169313174
