3
Lattice="37.794516672147068 0.0000000000000000 0.0000000000000000 0.0000000000000000 37.794516672147068 0.0000000000000000 0.0000000000000000 0.0000000000000000 11.338355001644119" Properties=species:S:1:pos:R:3:dipoles:R:3
Fe 0.0000000000000000 0.0000000000000000 -2.0000000000000000 -1.0131910072601100 -2.3585718912901705 1.8769610055680921
Fe 0.0000000000000000 0.0000000000000000 0.0000000000000000 1.4986111331294372 -1.7287276981971671 2.2086342425006484
Fe 0.0000000000000000 0.0000000000000000 2.0000000000000000 2.9979108074494456 7.8730474081157867E-002 1.0577014243295475
