3
Lattice="37.794516672147068 0.0000000000000000 0.0000000000000000 0.0000000000000000 37.794516672147068 0.0000000000000000 0.0000000000000000 0.0000000000000000 11.338355001644119" Properties=species:S:1:pos:R:3:dipoles:R:3
Fe 0.0000000000000000 0.0000000000000000 -2.0000000000000000 -1.0456674434879536 -2.3648672874741994 1.8510489756524113
Fe 0.0000000000000000 0.0000000000000000 0.0000000000000000 1.4971013303507266 -1.7442504601395623 2.1974252976984157
Fe 0.0000000000000000 0.0000000000000000 2.0000000000000000 3.0053357284909246 9.0738074333963220E-002 1.0354340929880905
