3
Lattice="37.794516672147068 0.0000000000000000 0.0000000000000000 0.0000000000000000 37.794516672147068 0.0000000000000000 0.0000000000000000 0.0000000000000000 11.338355001644119" Properties=species:S:1:pos:R:3:dipoles:R:3
Fe 0.0000000000000000 0.0000000000000000 -2.0000000000000000 -1.7638892243760673 -2.0125658053965885 1.7177525092627195
Fe 0.0000000000000000 0.0000000000000000 0.0000000000000000 1.5313310932786248 -1.8215067382841270 2.1093928712175951
Fe 0.0000000000000000 0.0000000000000000 2.0000000000000000 3.1070070950706499 0.52763968601969480 0.42485676753192148
