3
Lattice="4.7243153133767404 0.0000000000000000 0.0000000000000000 0.0000000000000000 4.7243153133767404 0.0000000000000000 0.0000000000000000 0.0000000000000000 4.7243153133767404" Properties=species:S:1:pos:R:3:dipoles:R:3
Fe 0.0000000000000000 0.0000000000000000 0.0000000000000000 -4.9720644604337198E-003 -3.4871675191230555E-003 3.1799942009754822
Fe 2.1650635094610999 -1.2500000000000000 0.0000000000000000 -5.4624535810592519E-003 -3.0847318854187547E-003 3.1799938122628668
Fe 2.1650635094610999 1.2500000000000000 0.0000000000000000 -5.5053980491321392E-003 -3.7301890272523845E-003 3.1799930465776400
