3
Lattice="4.7243153133767404 0.0000000000000000 0.0000000000000000 0.0000000000000000 4.7243153133767404 0.0000000000000000 0.0000000000000000 0.0000000000000000 4.7243153133767404" Properties=species:S:1:pos:R:3:dipoles:R:3
Fe 0.0000000000000000 0.0000000000000000 0.0000000000000000 -2.9977678013895872E-003 3.1922366625525021E-002 3.1798383568818798
Fe 2.1650635094610999 -1.2500000000000000 0.0000000000000000 -3.7844578574829521E-002 -1.9748446524527043E-002 3.1797134755717265
Fe 2.1650635094610999 1.2500000000000000 0.0000000000000000 2.5188658616857408E-002 -2.2780574486760047E-002 3.1798186389954890
