3
Lattice="4.7243153133767404 0.0000000000000000 0.0000000000000000 0.0000000000000000 4.7243153133767404 0.0000000000000000 0.0000000000000000 0.0000000000000000 4.7243153133767404" Properties=species:S:1:pos:R:3:dipoles:R:3
Fe 0.0000000000000000 0.0000000000000000 0.0000000000000000 -5.3897960599392902E-003 -3.4034910095086537E-003 3.1799936110544889
Fe 2.1650635094610999 -1.2500000000000000 0.0000000000000000 -5.3504500150880164E-003 -3.4419705076832552E-003 3.1799936360822607
Fe 2.1650635094610999 1.2500000000000000 0.0000000000000000 -5.3475138788955960E-003 -3.4194483466326443E-003 3.1799936653189009
