3
Lattice="4.7243153133767404 0.0000000000000000 0.0000000000000000 0.0000000000000000 4.7243153133767404 0.0000000000000000 0.0000000000000000 0.0000000000000000 4.7243153133767404" Properties=species:S:1:pos:R:3:dipoles:R:3
Fe 0.0000000000000000 0.0000000000000000 0.0000000000000000 0.18315936136182739 -0.48372838593025130 3.1376519081935874
Fe 2.1650635094610999 -1.2500000000000000 0.0000000000000000 0.31916182355876072 0.40577704267205433 3.1378146411193581
Fe 2.1650635094610999 1.2500000000000000 0.0000000000000000 -0.51988667474609385 7.0614679334949568E-002 3.1364201587931229
