3
Lattice="4.7243153133767404 0.0000000000000000 0.0000000000000000 0.0000000000000000 4.7243153133767404 0.0000000000000000 0.0000000000000000 0.0000000000000000 4.7243153133767404" Properties=species:S:1:pos:R:3:dipoles:R:3
Fe 0.0000000000000000 0.0000000000000000 0.0000000000000000 -5.4836523028972857E-003 -3.3773893444366660E-003 3.1799934784207755
Fe 2.1650635094610999 -1.2500000000000000 0.0000000000000000 -5.4590715306004631E-003 -3.3781641448647629E-003 3.1799935198904223
Fe 2.1650635094610999 1.2500000000000000 0.0000000000000000 -5.4668634088608226E-003 -3.3935206495506998E-003 3.1799934901540441
