3
Lattice="4.7243153133767404 0.0000000000000000 0.0000000000000000 0.0000000000000000 4.7243153133767404 0.0000000000000000 0.0000000000000000 0.0000000000000000 4.7243153133767404" Properties=species:S:1:pos:R:3:dipoles:R:3
Fe 0.0000000000000000 0.0000000000000000 0.0000000000000000 -5.0181343878280167E-003 -3.4345122780927374E-003 3.1799941859149183
Fe 2.1650635094610999 -1.2500000000000000 0.0000000000000000 -5.4868989959797922E-003 -3.1551130368506590E-003 3.1799937011260231
Fe 2.1650635094610999 1.2500000000000000 0.0000000000000000 -5.4416393973763426E-003 -3.7107127673700305E-003 3.1799931791076892
