3
Lattice="4.7243153133767404 0.0000000000000000 0.0000000000000000 0.0000000000000000 4.7243153133767404 0.0000000000000000 0.0000000000000000 0.0000000000000000 4.7243153133767404" Properties=species:S:1:pos:R:3:dipoles:R:3
Fe 0.0000000000000000 0.0000000000000000 0.0000000000000000 -1.5620111231199314E-002 2.5369226272764548E-003 3.1799606249368466
Fe 2.1650635094610999 -1.2500000000000000 0.0000000000000000 -5.2088167502143227E-003 -1.5857863986631176E-002 3.1799561940973198
Fe 2.1650635094610999 1.2500000000000000 0.0000000000000000 5.1766313489030272E-003 2.9439652643768023E-003 3.1799944238247311
