3
Lattice="4.7243153133767404 0.0000000000000000 0.0000000000000000 0.0000000000000000 4.7243153133767404 0.0000000000000000 0.0000000000000000 0.0000000000000000 4.7243153133767404" Properties=species:S:1:pos:R:3:dipoles:R:3
Fe 0.0000000000000000 0.0000000000000000 0.0000000000000000 -5.4899769807525856E-003 -3.3743519442904972E-003 3.1799934707325623
Fe 2.1650635094610999 -1.2500000000000000 0.0000000000000000 -5.4655496982883309E-003 -3.3747026613187596E-003 3.1799935124381129
Fe 2.1650635094610999 1.2500000000000000 0.0000000000000000 -5.4723315528205935E-003 -3.3907453167748886E-003 3.1799934837092994
