3
Lattice="4.7243153133767404 0.0000000000000000 0.0000000000000000 0.0000000000000000 4.7243153133767404 0.0000000000000000 0.0000000000000000 0.0000000000000000 4.7243153133767404" Properties=species:S:1:pos:R:3:dipoles:R:3
Fe 0.0000000000000000 0.0000000000000000 0.0000000000000000 -5.1977391403231410E-003 -3.3350762727197862E-003 3.1799940032607137
Fe 2.1650635094610999 -1.2500000000000000 0.0000000000000000 -5.4826384526858729E-003 -3.3651227428952253E-003 3.1799934931733054
Fe 2.1650635094610999 1.2500000000000000 0.0000000000000000 -5.2969665933417578E-003 -3.5909189971393409E-003 3.1799935609126124
