3
Lattice="4.7243153133767404 0.0000000000000000 0.0000000000000000 0.0000000000000000 4.7243153133767404 0.0000000000000000 0.0000000000000000 0.0000000000000000 4.7243153133767404" Properties=species:S:1:pos:R:3:dipoles:R:3
Fe 0.0000000000000000 0.0000000000000000 0.0000000000000000 -5.0196503429197681E-002 -0.78423064468375436 3.0813734935872987
Fe 2.1650635094610999 -1.2500000000000000 0.0000000000000000 0.69913465849341183 0.35370494517165330 3.0819642342270051
Fe 2.1650635094610999 1.2500000000000000 0.0000000000000000 -0.66526959048081968 0.42573171214955641 3.0803520709898891
