3
Lattice="4.7243153133767404 0.0000000000000000 0.0000000000000000 0.0000000000000000 4.7243153133767404 0.0000000000000000 0.0000000000000000 0.0000000000000000 4.7243153133767404" Properties=species:S:1:pos:R:3:dipoles:R:3
Fe 0.0000000000000000 0.0000000000000000 0.0000000000000000 0.23284962724719466 -0.15976096668045658 3.1674370529840337
Fe 2.1650635094610999 -1.2500000000000000 0.0000000000000000 1.0492264801076647E-002 0.28537110665822812 3.1671522293480061
Fe 2.1650635094610999 1.2500000000000000 0.0000000000000000 -0.26079767507503054 -0.13531126740042820 3.1663978640704569
