3
Lattice="4.7243153133767404 0.0000000000000000 0.0000000000000000 0.0000000000000000 4.7243153133767404 0.0000000000000000 0.0000000000000000 0.0000000000000000 4.7243153133767404" Properties=species:S:1:pos:R:3:dipoles:R:3
Fe 0.0000000000000000 0.0000000000000000 0.0000000000000000 -6.3505558761322899E-003 -5.5225255393538189E-003 3.1799888635263733
Fe 2.1650635094610999 -1.2500000000000000 0.0000000000000000 -2.7987541828847743E-003 -3.2833773358856679E-003 3.1799970733332987
Fe 2.1650635094610999 1.2500000000000000 0.0000000000000000 -6.6735433102322918E-003 -1.4698431655854060E-003 3.1799926577557933
