3
Lattice="4.7243153133767404 0.0000000000000000 0.0000000000000000 0.0000000000000000 4.7243153133767404 0.0000000000000000 0.0000000000000000 0.0000000000000000 4.7243153133767404" Properties=species:S:1:pos:R:3:dipoles:R:3
Fe 0.0000000000000000 0.0000000000000000 0.0000000000000000 0.23675727715520611 -0.18446715806736416 3.1658044568969532
Fe 2.1650635094610999 -1.2500000000000000 0.0000000000000000 3.0175307327489877E-002 0.30131298889663249 3.1655489150461582
Fe 2.1650635094610999 1.2500000000000000 0.0000000000000000 -0.28445121253449807 -0.12638142874171254 3.1647298845488949
