3
Lattice="4.7243153133767404 0.0000000000000000 0.0000000000000000 0.0000000000000000 4.7243153133767404 0.0000000000000000 0.0000000000000000 0.0000000000000000 4.7243153133767404" Properties=species:S:1:pos:R:3:dipoles:R:3
Fe 0.0000000000000000 0.0000000000000000 0.0000000000000000 -5.5052881558908364E-003 -3.3673981675888314E-003 3.1799934516334956
Fe 2.1650635094610999 -1.2500000000000000 0.0000000000000000 -5.4813965498040915E-003 -3.3670531113539157E-003 3.1799934932708975
Fe 2.1650635094610999 1.2500000000000000 0.0000000000000000 -5.4864692847181474E-003 -3.3833487947575788E-003 3.1799934672268972
