3
Lattice="4.7243153133767404 0.0000000000000000 0.0000000000000000 0.0000000000000000 4.7243153133767404 0.0000000000000000 0.0000000000000000 0.0000000000000000 4.7243153133767404" Properties=species:S:1:pos:R:3:dipoles:R:3
Fe 0.0000000000000000 0.0000000000000000 0.0000000000000000 -5.4173377462644629E-003 -3.4057556149805495E-003 3.1799935618300315
Fe 2.1650635094610999 -1.2500000000000000 0.0000000000000000 -5.3977378769990373E-003 -3.4033347011096404E-003 3.1799935977512201
Fe 2.1650635094610999 1.2500000000000000 0.0000000000000000 -5.4111346394535853E-003 -3.4190776800267675E-003 3.1799935580956400
