3
Lattice="4.7243153133767404 0.0000000000000000 0.0000000000000000 0.0000000000000000 4.7243153133767404 0.0000000000000000 0.0000000000000000 0.0000000000000000 4.7243153133767404" Properties=species:S:1:pos:R:3:dipoles:R:3
Fe 0.0000000000000000 0.0000000000000000 0.0000000000000000 -4.8593655507635294E-003 -4.0731214959585831E-003 3.1799936786490224
Fe 2.1650635094610999 -1.2500000000000000 0.0000000000000000 -4.9658403670407233E-003 -2.6646079663371946E-003 3.1799950063315960
Fe 2.1650635094610999 1.2500000000000000 0.0000000000000000 -6.0814864576479496E-003 -3.5669520766321472E-003 3.1799921843261423
