3
Lattice="4.7243153133767404 0.0000000000000000 0.0000000000000000 0.0000000000000000 4.7243153133767404 0.0000000000000000 0.0000000000000000 0.0000000000000000 4.7243153133767404" Properties=species:S:1:pos:R:3:dipoles:R:3
Fe 0.0000000000000000 0.0000000000000000 0.0000000000000000 -4.9630735245427479E-003 -3.4994497875763791E-003 3.1799942015281064
Fe 2.1650635094610999 -1.2500000000000000 0.0000000000000000 -5.4557689375695963E-003 -3.0698488609867264E-003 3.1799938381407791
Fe 2.1650635094610999 1.2500000000000000 0.0000000000000000 -5.5197546332478578E-003 -3.7331115319282431E-003 3.1799930182607441
