3
Lattice="4.7243153133767404 0.0000000000000000 0.0000000000000000 0.0000000000000000 4.7243153133767404 0.0000000000000000 0.0000000000000000 0.0000000000000000 4.7243153133767404" Properties=species:S:1:pos:R:3:dipoles:R:3
Fe 0.0000000000000000 0.0000000000000000 0.0000000000000000 -5.3799333507723182E-003 -3.3889169791861489E-003 3.1799936433205089
Fe 2.1650635094610999 -1.2500000000000000 0.0000000000000000 -5.3569876417383045E-003 -3.4544606805214932E-003 3.1799936115320784
Fe 2.1650635094610999 1.2500000000000000 0.0000000000000000 -5.3261547488756477E-003 -3.4261927684662314E-003 3.1799936939054962
