3
Lattice="4.7243153133767404 0.0000000000000000 0.0000000000000000 0.0000000000000000 4.7243153133767404 0.0000000000000000 0.0000000000000000 0.0000000000000000 4.7243153133767404" Properties=species:S:1:pos:R:3:dipoles:R:3
Fe 0.0000000000000000 0.0000000000000000 0.0000000000000000 -5.4016870051473006E-003 -3.4160893640358216E-003 3.1799935773694532
Fe 2.1650635094610999 -1.2500000000000000 0.0000000000000000 -5.3677652733971374E-003 -3.4135399560397371E-003 3.1799936375472471
Fe 2.1650635094610999 1.2500000000000000 0.0000000000000000 -5.3858606426575046E-003 -3.4186827163941733E-003 3.1799936014265264
