3
Lattice="4.7243153133767404 0.0000000000000000 0.0000000000000000 0.0000000000000000 4.7243153133767404 0.0000000000000000 0.0000000000000000 0.0000000000000000 4.7243153133767404" Properties=species:S:1:pos:R:3:dipoles:R:3
Fe 0.0000000000000000 0.0000000000000000 0.0000000000000000 -5.4385823744977036E-003 -3.3942882178438481E-003 3.1799935378282238
Fe 2.1650635094610999 -1.2500000000000000 0.0000000000000000 -5.4133828810421954E-003 -3.3972501190138293E-003 3.1799935776629242
Fe 2.1650635094610999 1.2500000000000000 0.0000000000000000 -5.4239178922303056E-003 -3.4126867529503664E-003 3.1799935431827300
