3
Lattice="4.7243153133767404 0.0000000000000000 0.0000000000000000 0.0000000000000000 4.7243153133767404 0.0000000000000000 0.0000000000000000 0.0000000000000000 4.7243153133767404" Properties=species:S:1:pos:R:3:dipoles:R:3
Fe 0.0000000000000000 0.0000000000000000 0.0000000000000000 -0.22790625298582604 -0.90936462456443246 3.0386698931342888
Fe 2.1650635094610999 -1.2500000000000000 0.0000000000000000 0.89765847441786739 0.26187257115048485 3.0394131044964681
Fe 2.1650635094610999 1.2500000000000000 0.0000000000000000 -0.68500311901343125 0.64390905007494026 3.0378531666579063
