3
Lattice="4.7243153133767404 0.0000000000000000 0.0000000000000000 0.0000000000000000 4.7243153133767404 0.0000000000000000 0.0000000000000000 0.0000000000000000 4.7243153133767404" Properties=species:S:1:pos:R:3:dipoles:R:3
Fe 0.0000000000000000 0.0000000000000000 0.0000000000000000 -7.6402078072653591E-003 -5.7243265633396346E-003 3.1799856696705540
Fe 2.1650635094610999 -1.2500000000000000 0.0000000000000000 -1.9357536663588218E-003 -4.3604379709500677E-003 3.1799964212933474
Fe 2.1650635094610999 1.2500000000000000 0.0000000000000000 -6.2133280011176916E-003 -2.0181679772364211E-004 3.1799939235516055
