3
Lattice="4.7243153133767404 0.0000000000000000 0.0000000000000000 0.0000000000000000 4.7243153133767404 0.0000000000000000 0.0000000000000000 0.0000000000000000 4.7243153133767404" Properties=species:S:1:pos:R:3:dipoles:R:3
Fe 0.0000000000000000 0.0000000000000000 0.0000000000000000 0.10071382604132925 3.6006134029738977E-002 3.1782007934610377
Fe 2.1650635094610999 -1.2500000000000000 0.0000000000000000 -9.4419671601906605E-002 6.9800288008287914E-002 3.1778314690065921
Fe 2.1650635094610999 1.2500000000000000 0.0000000000000000 -2.2575673854723453E-002 -0.11662774818471465 3.1777804057711987
