3
Lattice="4.7243153133767404 0.0000000000000000 0.0000000000000000 0.0000000000000000 4.7243153133767404 0.0000000000000000 0.0000000000000000 0.0000000000000000 4.7243153133767404" Properties=species:S:1:pos:R:3:dipoles:R:3
Fe 0.0000000000000000 0.0000000000000000 0.0000000000000000 -1.1840085960135090E-002 -3.9902233592196837E-003 3.1799754543835768
Fe 2.1650635094610999 -1.2500000000000000 0.0000000000000000 -1.3142270465176481E-003 -9.0783702938098607E-003 3.1799867697838193
Fe 2.1650635094610999 1.2500000000000000 0.0000000000000000 -2.5581828849629293E-003 2.7453942088838429E-003 3.1799977859286241
