3
Lattice="4.7243153133767404 0.0000000000000000 0.0000000000000000 0.0000000000000000 4.7243153133767404 0.0000000000000000 0.0000000000000000 0.0000000000000000 4.7243153133767404" Properties=species:S:1:pos:R:3:dipoles:R:3
Fe 0.0000000000000000 0.0000000000000000 0.0000000000000000 -5.4457139750889736E-003 -3.3921081405791386E-003 3.1799935279496512
Fe 2.1650635094610999 -1.2500000000000000 0.0000000000000000 -5.4201591182693664E-003 -3.3938699334980847E-003 3.1799935697296680
Fe 2.1650635094610999 1.2500000000000000 0.0000000000000000 -5.4294140398231877E-003 -3.4096698285418945E-003 3.1799935370397967
