3
Lattice="4.7243153133767404 0.0000000000000000 0.0000000000000000 0.0000000000000000 4.7243153133767404 0.0000000000000000 0.0000000000000000 0.0000000000000000 4.7243153133767404" Properties=species:S:1:pos:R:3:dipoles:R:3
Fe 0.0000000000000000 0.0000000000000000 0.0000000000000000 0.17113507312730514 -2.0176237131770202E-002 3.1753276533612920
Fe 2.1650635094610999 -1.2500000000000000 0.0000000000000000 -8.0765676298671693E-002 0.16037081190745253 3.1749264728840894
Fe 2.1650635094610999 1.2500000000000000 0.0000000000000000 -0.10720416449092530 -0.15075944686919929 3.1746147571469985
