3
Lattice="4.7243153133767404 0.0000000000000000 0.0000000000000000 0.0000000000000000 4.7243153133767404 0.0000000000000000 0.0000000000000000 0.0000000000000000 4.7243153133767404" Properties=species:S:1:pos:R:3:dipoles:R:3
Fe 0.0000000000000000 0.0000000000000000 0.0000000000000000 -0.86053721075652911 -1.0967111728573475 2.8581638008052006
Fe 2.1650635094610999 -1.2500000000000000 0.0000000000000000 1.3786870718695896 -0.19419437631483871 2.8590051595034538
Fe 2.1650635094610999 1.2500000000000000 0.0000000000000000 -0.52930572915987217 1.2899327977300923 2.8580253362100851
