3
Lattice="4.7243153133767404 0.0000000000000000 0.0000000000000000 0.0000000000000000 4.7243153133767404 0.0000000000000000 0.0000000000000000 0.0000000000000000 4.7243153133767404" Properties=species:S:1:pos:R:3:dipoles:R:3
Fe 0.0000000000000000 0.0000000000000000 0.0000000000000000 -5.4788482339710272E-003 -3.3797560867318086E-003 3.1799934841868542
Fe 2.1650635094610999 -1.2500000000000000 0.0000000000000000 -5.4543526133196832E-003 -3.3806929284788886E-003 3.1799935253004730
Fe 2.1650635094610999 1.2500000000000000 0.0000000000000000 -5.4628139401787191E-003 -3.3954919721722212E-003 3.1799934950087794
