3
Lattice="4.7243153133767404 0.0000000000000000 0.0000000000000000 0.0000000000000000 4.7243153133767404 0.0000000000000000 0.0000000000000000 0.0000000000000000 4.7243153133767404" Properties=species:S:1:pos:R:3:dipoles:R:3
Fe 0.0000000000000000 0.0000000000000000 0.0000000000000000 2.2735969073204604E-002 4.5223607319312388E-002 3.1795971287336617
Fe 2.1650635094610999 -1.2500000000000000 0.0000000000000000 -6.2783346462024034E-002 -3.7526758214235069E-003 3.1793779531271955
Fe 2.1650635094610999 1.2500000000000000 0.0000000000000000 2.4274852188665721E-002 -5.2205001239075753E-002 3.1794787889521814
