3
Lattice="4.7243153133767404 0.0000000000000000 0.0000000000000000 0.0000000000000000 4.7243153133767404 0.0000000000000000 0.0000000000000000 0.0000000000000000 4.7243153133767404" Properties=species:S:1:pos:R:3:dipoles:R:3
Fe 0.0000000000000000 0.0000000000000000 0.0000000000000000 -5.3997100876690754E-003 -3.4162067989414852E-003 3.1799935806007662
Fe 2.1650635094610999 -1.2500000000000000 0.0000000000000000 -5.3595952682604104E-003 -3.4202850582090807E-003 3.1799936440799232
Fe 2.1650635094610999 1.2500000000000000 0.0000000000000000 -5.3766066505898328E-003 -3.4184060371104329E-003 3.1799936173837073
