3
Lattice="4.7243153133767404 0.0000000000000000 0.0000000000000000 0.0000000000000000 4.7243153133767404 0.0000000000000000 0.0000000000000000 0.0000000000000000 4.7243153133767404" Properties=species:S:1:pos:R:3:dipoles:R:3
Fe 0.0000000000000000 0.0000000000000000 0.0000000000000000 -5.3990230786522273E-003 -3.4159078931670708E-003 3.1799935820883465
Fe 2.1650635094610999 -1.2500000000000000 0.0000000000000000 -5.3583479335497924E-003 -3.4228089153678872E-003 3.1799936434663798
Fe 2.1650635094610999 1.2500000000000000 0.0000000000000000 -5.3746468994369211E-003 -3.4183257461205172E-003 3.1799936207828825
