3
Lattice="4.7243153133767404 0.0000000000000000 0.0000000000000000 0.0000000000000000 4.7243153133767404 0.0000000000000000 0.0000000000000000 0.0000000000000000 4.7243153133767404" Properties=species:S:1:pos:R:3:dipoles:R:3
Fe 0.0000000000000000 0.0000000000000000 0.0000000000000000 -5.4050455229019819E-003 -3.4139579820227067E-003 3.1799935739516538
Fe 2.1650635094610999 -1.2500000000000000 0.0000000000000000 -5.3778144914560840E-003 -3.4087156617401706E-003 3.1799936257434336
Fe 2.1650635094610999 1.2500000000000000 0.0000000000000000 -5.3952586605274678E-003 -3.4190999652433276E-003 3.1799935850469017
