3
Lattice="4.7243153133767404 0.0000000000000000 0.0000000000000000 0.0000000000000000 4.7243153133767404 0.0000000000000000 0.0000000000000000 0.0000000000000000 4.7243153133767404" Properties=species:S:1:pos:R:3:dipoles:R:3
Fe 0.0000000000000000 0.0000000000000000 0.0000000000000000 -5.3590725069569542E-003 -3.3669091023243178E-003 3.1799937019222155
Fe 2.1650635094610999 -1.2500000000000000 0.0000000000000000 -5.3781338439307016E-003 -3.4619944950259585E-003 3.1799935676460889
Fe 2.1650635094610999 1.2500000000000000 0.0000000000000000 -5.3005852111302288E-003 -3.4459035903074225E-003 3.1799937153310354
