3
Lattice="4.7243153133767404 0.0000000000000000 0.0000000000000000 0.0000000000000000 4.7243153133767404 0.0000000000000000 0.0000000000000000 0.0000000000000000 4.7243153133767404" Properties=species:S:1:pos:R:3:dipoles:R:3
Fe 0.0000000000000000 0.0000000000000000 0.0000000000000000 -5.3758773544148875E-003 -3.3836519060870093E-003 3.1799936557865092
Fe 2.1650635094610999 -1.2500000000000000 0.0000000000000000 -5.3610679165848286E-003 -3.4574369591983682E-003 3.1799936014213115
Fe 2.1650635094610999 1.2500000000000000 0.0000000000000000 -5.3193908129948210E-003 -3.4298780194414792E-003 3.1799937012544808
