3
Lattice="4.7243153133767404 0.0000000000000000 0.0000000000000000 0.0000000000000000 4.7243153133767404 0.0000000000000000 0.0000000000000000 0.0000000000000000 4.7243153133767404" Properties=species:S:1:pos:R:3:dipoles:R:3
Fe 0.0000000000000000 0.0000000000000000 0.0000000000000000 -4.8482816872592940E-003 -3.9794509357483961E-003 3.1799938141661448
Fe 2.1650635094610999 -1.2500000000000000 0.0000000000000000 -5.0613780403247557E-003 -2.7042784892939639E-003 3.1799948222175192
Fe 2.1650635094610999 1.2500000000000000 0.0000000000000000 -6.0005811771879436E-003 -3.6215117077641554E-003 3.1799922763551618
