3
Lattice="4.7243153133767404 0.0000000000000000 0.0000000000000000 0.0000000000000000 4.7243153133767404 0.0000000000000000 0.0000000000000000 0.0000000000000000 4.7243153133767404" Properties=species:S:1:pos:R:3:dipoles:R:3
Fe 0.0000000000000000 0.0000000000000000 0.0000000000000000 -1.8160743505524926 -0.91231420378795458 2.4458039060464540
Fe 2.1650635094610999 -1.2500000000000000 0.0000000000000000 1.6979638876950323 -1.1159097770350823 2.4462346587359707
Fe 2.1650635094610999 1.2500000000000000 0.0000000000000000 0.11321629801703018 2.0286678715018724 2.4462397137237777
