3
Lattice="4.7243153133767404 0.0000000000000000 0.0000000000000000 0.0000000000000000 4.7243153133767404 0.0000000000000000 0.0000000000000000 0.0000000000000000 4.7243153133767404" Properties=species:S:1:pos:R:3:dipoles:R:3
Fe 0.0000000000000000 0.0000000000000000 0.0000000000000000 2.5115527407844077E-002 4.5841218004734813E-002 3.1795703786855993
Fe 2.1650635094610999 -1.2500000000000000 0.0000000000000000 -6.4544389641288336E-002 -1.9622426788031785E-003 3.1793442989663085
Fe 2.1650635094610999 1.2500000000000000 0.0000000000000000 2.3643145217191144E-002 -5.4620299564573538E-002 3.1794429739436589
