3
Lattice="4.7243153133767404 0.0000000000000000 0.0000000000000000 0.0000000000000000 4.7243153133767404 0.0000000000000000 0.0000000000000000 0.0000000000000000 4.7243153133767404" Properties=species:S:1:pos:R:3:dipoles:R:3
Fe 0.0000000000000000 0.0000000000000000 0.0000000000000000 -5.4394569169045224E-003 -3.3939939817067715E-003 3.1799935366464687
Fe 2.1650635094610999 -1.2500000000000000 0.0000000000000000 -5.4144449798139401E-003 -3.3961929735761374E-003 3.1799935769839029
Fe 2.1650635094610999 1.2500000000000000 0.0000000000000000 -5.4245129956808818E-003 -3.4124576760367837E-003 3.1799935424134746
