3
Lattice="4.7243153133767404 0.0000000000000000 0.0000000000000000 0.0000000000000000 4.7243153133767404 0.0000000000000000 0.0000000000000000 0.0000000000000000 4.7243153133767404" Properties=species:S:1:pos:R:3:dipoles:R:3
Fe 0.0000000000000000 0.0000000000000000 0.0000000000000000 -1.9496115747692557 -0.84284410876255711 2.3666492168992836
Fe 2.1650635094610999 -1.2500000000000000 0.0000000000000000 1.7046248517384306 -1.2664669164934199 2.3670056324950703
Fe 2.1650635094610999 1.2500000000000000 0.0000000000000000 0.24093943050675201 2.1097861250196002 2.3670975259802614
