3
Lattice="4.7243153133767404 0.0000000000000000 0.0000000000000000 0.0000000000000000 4.7243153133767404 0.0000000000000000 0.0000000000000000 0.0000000000000000 4.7243153133767404" Properties=species:S:1:pos:R:3:dipoles:R:3
Fe 0.0000000000000000 0.0000000000000000 0.0000000000000000 -4.8458856503324470E-003 -3.8932056393948347E-003 3.1799939245762916
Fe 2.1650635094610999 -1.2500000000000000 0.0000000000000000 -5.1450855053062454E-003 -2.7483233882363766E-003 3.1799946501234473
Fe 2.1650635094610999 1.2500000000000000 0.0000000000000000 -5.9228378706520880E-003 -3.6639957660689311E-003 3.1799923734384308
