3
Lattice="4.7243153133767404 0.0000000000000000 0.0000000000000000 0.0000000000000000 4.7243153133767404 0.0000000000000000 0.0000000000000000 0.0000000000000000 4.7243153133767404" Properties=species:S:1:pos:R:3:dipoles:R:3
Fe 0.0000000000000000 0.0000000000000000 0.0000000000000000 -5.4298429169664826E-003 -3.3973893730327356E-003 3.1799935494512193
Fe 2.1650635094610999 -1.2500000000000000 0.0000000000000000 -5.4065109426368711E-003 -3.4002518786415419E-003 3.1799935861455153
Fe 2.1650635094610999 1.2500000000000000 0.0000000000000000 -5.4181674526507075E-003 -3.4157409696737458E-003 3.1799935497065279
