3
Lattice="4.7243153133767404 0.0000000000000000 0.0000000000000000 0.0000000000000000 4.7243153133767404 0.0000000000000000 0.0000000000000000 0.0000000000000000 4.7243153133767404" Properties=species:S:1:pos:R:3:dipoles:R:3
Fe 0.0000000000000000 0.0000000000000000 0.0000000000000000 -5.5090993709547877E-003 -3.3655702652160744E-003 3.1799934469682358
Fe 2.1650635094610999 -1.2500000000000000 0.0000000000000000 -5.4849552797173462E-003 -3.3657729480853420E-003 3.1799934884898864
Fe 2.1650635094610999 1.2500000000000000 0.0000000000000000 -5.4901186652899494E-003 -3.3813607265932811E-003 3.1799934630430764
