3
Lattice="4.7243153133767404 0.0000000000000000 0.0000000000000000 0.0000000000000000 4.7243153133767404 0.0000000000000000 0.0000000000000000 0.0000000000000000 4.7243153133767404" Properties=species:S:1:pos:R:3:dipoles:R:3
Fe 0.0000000000000000 0.0000000000000000 0.0000000000000000 -2.7539607840345148 3.3726292591452038E-016 1.5900000000000005
Fe 2.1650635094610999 -1.2500000000000000 0.0000000000000000 1.3769803920172576 -2.3849999999999998 1.5900000000000005
Fe 2.1650635094610999 1.2500000000000000 0.0000000000000000 1.3769803920172576 2.3849999999999998 1.5900000000000005
