3
Lattice="4.7243153133767404 0.0000000000000000 0.0000000000000000 0.0000000000000000 4.7243153133767404 0.0000000000000000 0.0000000000000000 0.0000000000000000 4.7243153133767404" Properties=species:S:1:pos:R:3:dipoles:R:3
Fe 0.0000000000000000 0.0000000000000000 0.0000000000000000 -5.3208257519925771E-003 -3.3445019037163554E-003 3.1799937897927308
Fe 2.1650635094610999 -1.2500000000000000 0.0000000000000000 -5.4124118613097976E-003 -3.4530846765872562E-003 3.1799935191764286
Fe 2.1650635094610999 1.2500000000000000 0.0000000000000000 -5.2811333199120148E-003 -3.4826145973947428E-003 3.1799937077023341
