3
Lattice="4.7243153133767404 0.0000000000000000 0.0000000000000000 0.0000000000000000 4.7243153133767404 0.0000000000000000 0.0000000000000000 0.0000000000000000 4.7243153133767404" Properties=species:S:1:pos:R:3:dipoles:R:3
Fe 0.0000000000000000 0.0000000000000000 0.0000000000000000 -1.0189995744834864E-002 -5.0882058938582142E-003 3.1799796027879692
Fe 2.1650635094610999 -1.2500000000000000 0.0000000000000000 -1.1838381473198306E-003 -7.0175088436645544E-003 3.1799920366404884
Fe 2.1650635094610999 1.2500000000000000 0.0000000000000000 -4.3650845727672988E-003 1.7933701248048304E-003 3.1799964984037743
