3
Lattice="4.7243153133767404 0.0000000000000000 0.0000000000000000 0.0000000000000000 4.7243153133767404 0.0000000000000000 0.0000000000000000 0.0000000000000000 4.7243153133767404" Properties=species:S:1:pos:R:3:dipoles:R:3
Fe 0.0000000000000000 0.0000000000000000 0.0000000000000000 -5.4127704846623423E-003 -3.4093342558924660E-003 3.1799935657726777
Fe 2.1650635094610999 -1.2500000000000000 0.0000000000000000 -5.3920489342948333E-003 -3.4044634081412187E-003 3.1799936061943934
Fe 2.1650635094610999 1.2500000000000000 0.0000000000000000 -5.4068070310788717E-003 -3.4196019605699352E-003 3.1799935648928912
