3
Lattice="4.7243153133767404 0.0000000000000000 0.0000000000000000 0.0000000000000000 4.7243153133767404 0.0000000000000000 0.0000000000000000 0.0000000000000000 4.7243153133767404" Properties=species:S:1:pos:R:3:dipoles:R:3
Fe 0.0000000000000000 0.0000000000000000 0.0000000000000000 -5.5000328088016560E-003 -3.3698037574789877E-003 3.1799934581790814
Fe 2.1650635094610999 -1.2500000000000000 0.0000000000000000 -5.4756398710857192E-003 -3.3700543542155518E-003 3.1799935000093456
Fe 2.1650635094610999 1.2500000000000000 0.0000000000000000 -5.4814665059954885E-003 -3.3859114715036409E-003 3.1799934731267103
