3
Lattice="4.7243153133767404 0.0000000000000000 0.0000000000000000 0.0000000000000000 4.7243153133767404 0.0000000000000000 0.0000000000000000 0.0000000000000000 4.7243153133767404" Properties=species:S:1:pos:R:3:dipoles:R:3
Fe 0.0000000000000000 0.0000000000000000 0.0000000000000000 0.13279586739484914 1.6898750028419670E-002 3.1771810917620589
Fe 2.1650635094610999 -1.2500000000000000 0.0000000000000000 -9.3907983473225085E-002 0.10778983377905636 3.1767849537502411
Fe 2.1650635094610999 1.2500000000000000 0.0000000000000000 -5.5410824491598697E-002 -0.13543991606570219 3.1766311825053406
