3
Lattice="4.7243153133767404 0.0000000000000000 0.0000000000000000 0.0000000000000000 4.7243153133767404 0.0000000000000000 0.0000000000000000 0.0000000000000000 4.7243153133767404" Properties=species:S:1:pos:R:3:dipoles:R:3
Fe 0.0000000000000000 0.0000000000000000 0.0000000000000000 -7.6173629156955303E-002 -0.80583074273418220 3.0752616786682636
Fe 2.1650635094610999 -1.2500000000000000 0.0000000000000000 0.73105064631548178 0.34194141314282778 3.0758805279951362
Fe 2.1650635094610999 1.2500000000000000 0.0000000000000000 -0.67105458429250087 0.45929519248635581 3.0742696158695888
