3
Lattice="4.7243153133767404 0.0000000000000000 0.0000000000000000 0.0000000000000000 4.7243153133767404 0.0000000000000000 0.0000000000000000 0.0000000000000000 4.7243153133767404" Properties=species:S:1:pos:R:3:dipoles:R:3
Fe 0.0000000000000000 0.0000000000000000 0.0000000000000000 -5.4035600014735461E-003 -3.4149499036174496E-003 3.1799935754111965
Fe 2.1650635094610999 -1.2500000000000000 0.0000000000000000 -5.3739439849829519E-003 -3.4103440366611663E-003 3.1799936305407335
Fe 2.1650635094610999 1.2500000000000000 0.0000000000000000 -5.3917947753857366E-003 -3.4189367810758134E-003 3.1799935910973804
