3
Lattice="4.7243153133767404 0.0000000000000000 0.0000000000000000 0.0000000000000000 4.7243153133767404 0.0000000000000000 0.0000000000000000 0.0000000000000000 4.7243153133767404" Properties=species:S:1:pos:R:3:dipoles:R:3
Fe 0.0000000000000000 0.0000000000000000 0.0000000000000000 -5.4064106799636214E-003 -3.4130578732853227E-003 3.1799935725972048
Fe 2.1650635094610999 -1.2500000000000000 0.0000000000000000 -5.3808865705311524E-003 -3.4075903141907466E-003 3.1799936217527227
Fe 2.1650635094610999 1.2500000000000000 0.0000000000000000 -5.3978874214657621E-003 -3.4192461265376856E-003 3.1799935804286372
