3
Lattice="4.7243153133767404 0.0000000000000000 0.0000000000000000 0.0000000000000000 4.7243153133767404 0.0000000000000000 0.0000000000000000 0.0000000000000000 4.7243153133767404" Properties=species:S:1:pos:R:3:dipoles:R:3
Fe 0.0000000000000000 0.0000000000000000 0.0000000000000000 0.17348049326660320 -0.50400347002504386 3.1350095726582259
Fe 2.1650635094610999 -1.2500000000000000 0.0000000000000000 0.34176598539756092 0.40755739221220610 3.1352022236657171
Fe 2.1650635094610999 1.2500000000000000 0.0000000000000000 -0.53277175757741646 8.9269862397825972E-002 3.1337812856029617
