3
Lattice="4.7243153133767404 0.0000000000000000 0.0000000000000000 0.0000000000000000 4.7243153133767404 0.0000000000000000 0.0000000000000000 0.0000000000000000 4.7243153133767404" Properties=species:S:1:pos:R:3:dipoles:R:3
Fe 0.0000000000000000 0.0000000000000000 0.0000000000000000 -5.4376483394765847E-003 -3.3945830661310569E-003 3.1799935391107890
Fe 2.1650635094610999 -1.2500000000000000 0.0000000000000000 -5.4127293325434891E-003 -3.3974586082765154E-003 3.1799935785526685
Fe 2.1650635094610999 1.2500000000000000 0.0000000000000000 -5.4233048257874856E-003 -3.4130358365036004E-003 3.1799935438536941
