3
Lattice="4.7243153133767404 0.0000000000000000 0.0000000000000000 0.0000000000000000 4.7243153133767404 0.0000000000000000 0.0000000000000000 0.0000000000000000 4.7243153133767404" Properties=species:S:1:pos:R:3:dipoles:R:3
Fe 0.0000000000000000 0.0000000000000000 0.0000000000000000 -5.3780675340615505E-003 -3.3863827926881519E-003 3.1799936491762333
Fe 2.1650635094610999 -1.2500000000000000 0.0000000000000000 -5.3588970171926271E-003 -3.4560095961553173E-003 3.1799936066320078
Fe 2.1650635094610999 1.2500000000000000 0.0000000000000000 -5.3228014218340445E-003 -3.4279110085360842E-003 3.1799936976684653
