3
Lattice="4.7243153133767404 0.0000000000000000 0.0000000000000000 0.0000000000000000 4.7243153133767404 0.0000000000000000 0.0000000000000000 0.0000000000000000 4.7243153133767404" Properties=species:S:1:pos:R:3:dipoles:R:3
Fe 0.0000000000000000 0.0000000000000000 0.0000000000000000 0.21817889384252759 -0.10542831261813292 3.1707543016102897
Fe 2.1650635094610999 -1.2500000000000000 0.0000000000000000 -2.9739617842092374E-002 0.24496124136792954 3.1704115734961178
Fe 2.1650635094610999 1.2500000000000000 0.0000000000000000 -0.20571484625900910 -0.14958607392222159 3.1698115730303549
