3
Lattice="4.7243153133767404 0.0000000000000000 0.0000000000000000 0.0000000000000000 4.7243153133767404 0.0000000000000000 0.0000000000000000 0.0000000000000000 4.7243153133767404" Properties=species:S:1:pos:R:3:dipoles:R:3
Fe 0.0000000000000000 0.0000000000000000 0.0000000000000000 3.8388024393815737E-002 4.8006842254900053E-002 3.1794058725931595
Fe 2.1650635094610999 -1.2500000000000000 0.0000000000000000 -7.3236216472382445E-002 8.6702829298317130E-003 3.1791447407739701
Fe 2.1650635094610999 1.2500000000000000 0.0000000000000000 1.8984596777977574E-002 -6.7456486496584811E-002 3.1792277690525261
