3
Lattice="4.7243153133767404 0.0000000000000000 0.0000000000000000 0.0000000000000000 4.7243153133767404 0.0000000000000000 0.0000000000000000 0.0000000000000000 4.7243153133767404" Properties=species:S:1:pos:R:3:dipoles:R:3
Fe 0.0000000000000000 0.0000000000000000 0.0000000000000000 -1.1584599894003518E-002 2.1892224009767522E-002 3.1799035406083043
Fe 2.1650635094610999 -1.2500000000000000 0.0000000000000000 -2.4542784370965059E-002 -2.2234006966244304E-002 3.1798275583228746
Fe 2.1650635094610999 1.2500000000000000 0.0000000000000000 2.0497904808630105E-002 -1.0189335080849562E-002 3.1799176110945155
