3
Lattice="4.7243153133767404 0.0000000000000000 0.0000000000000000 0.0000000000000000 4.7243153133767404 0.0000000000000000 0.0000000000000000 0.0000000000000000 4.7243153133767404" Properties=species:S:1:pos:R:3:dipoles:R:3
Fe 0.0000000000000000 0.0000000000000000 0.0000000000000000 -5.0088342538182210E-003 -3.4439277513833009E-003 3.1799941903942321
Fe 2.1650635094610999 -1.2500000000000000 0.0000000000000000 -5.4831205320559325E-003 -3.1416071120290863E-003 3.1799937210148754
Fe 2.1650635094610999 1.2500000000000000 0.0000000000000000 -5.4533457619302820E-003 -3.7151700198435394E-003 3.1799931538498201
