3
Lattice="4.7243153133767404 0.0000000000000000 0.0000000000000000 0.0000000000000000 4.7243153133767404 0.0000000000000000 0.0000000000000000 0.0000000000000000 4.7243153133767404" Properties=species:S:1:pos:R:3:dipoles:R:3
Fe 0.0000000000000000 0.0000000000000000 0.0000000000000000 -5.4100126729573240E-003 -3.4108486206967294E-003 3.1799935688417018
Fe 2.1650635094610999 -1.2500000000000000 0.0000000000000000 -5.3876635957380041E-003 -3.4055369826481831E-003 3.1799936124776838
Fe 2.1650635094610999 1.2500000000000000 0.0000000000000000 -5.4033942738576099E-003 -3.4195207135080605E-003 3.1799935707809914
