3
Lattice="4.7243153133767404 0.0000000000000000 0.0000000000000000 0.0000000000000000 4.7243153133767404 0.0000000000000000 0.0000000000000000 0.0000000000000000 4.7243153133767404" Properties=species:S:1:pos:R:3:dipoles:R:3
Fe 0.0000000000000000 0.0000000000000000 0.0000000000000000 -5.4478247795825682E-003 -3.3915797957183289E-003 3.1799935248977573
Fe 2.1650635094610999 -1.2500000000000000 0.0000000000000000 -5.4221347046588602E-003 -3.3932807798575421E-003 3.1799935669904769
Fe 2.1650635094610999 1.2500000000000000 0.0000000000000000 -5.4313056459944237E-003 -3.4086538052877334E-003 3.1799935348988129
