3
Lattice="4.7243153133767404 0.0000000000000000 0.0000000000000000 0.0000000000000000 4.7243153133767404 0.0000000000000000 0.0000000000000000 0.0000000000000000 4.7243153133767404" Properties=species:S:1:pos:R:3:dipoles:R:3
Fe 0.0000000000000000 0.0000000000000000 0.0000000000000000 -5.3885429158246970E-003 -3.4009279853399080E-003 3.1799936159203321
Fe 2.1650635094610999 -1.2500000000000000 0.0000000000000000 -5.3509353047711122E-003 -3.4447509889117302E-003 3.1799936322549458
Fe 2.1650635094610999 1.2500000000000000 0.0000000000000000 -5.3431508036508877E-003 -3.4202319355642712E-003 3.1799936718102151
