3
Lattice="4.7243153133767404 0.0000000000000000 0.0000000000000000 0.0000000000000000 4.7243153133767404 0.0000000000000000 0.0000000000000000 0.0000000000000000 4.7243153133767404" Properties=species:S:1:pos:R:3:dipoles:R:3
Fe 0.0000000000000000 0.0000000000000000 0.0000000000000000 -1.5348767960651120E-002 1.5843796632936968E-003 3.1799625634688220
Fe 2.1650635094610999 -1.2500000000000000 0.0000000000000000 -4.4957884394627601E-003 -1.5121802063352854E-002 3.1799608675247448
Fe 2.1650635094610999 1.2500000000000000 0.0000000000000000 4.1874894789391964E-003 3.1685242317308227E-003 3.1799956643659186
