3
Lattice="4.7243153133767404 0.0000000000000000 0.0000000000000000 0.0000000000000000 4.7243153133767404 0.0000000000000000 0.0000000000000000 0.0000000000000000 4.7243153133767404" Properties=species:S:1:pos:R:3:dipoles:R:3
Fe 0.0000000000000000 0.0000000000000000 0.0000000000000000 -5.3309870285273061E-003 -3.3490402652919860E-003 3.1799937679980768
Fe 2.1650635094610999 -1.2500000000000000 0.0000000000000000 -5.4039825285922905E-003 -3.4569834924139059E-003 3.1799935292761194
Fe 2.1650635094610999 1.2500000000000000 0.0000000000000000 -5.2843893599615142E-003 -3.4729645398639758E-003 3.1799937128469944
