3
Lattice="4.7243153133767404 0.0000000000000000 0.0000000000000000 0.0000000000000000 4.7243153133767404 0.0000000000000000 0.0000000000000000 0.0000000000000000 4.7243153133767404" Properties=species:S:1:pos:R:3:dipoles:R:3
Fe 0.0000000000000000 0.0000000000000000 0.0000000000000000 0.15196037317466801 6.4608835015968788E-004 3.1763670486192987
Fe 2.1650635094610999 -1.2500000000000000 0.0000000000000000 -8.9342547305856071E-002 0.13292370584815497 3.1759642941419433
Fe 2.1650635094610999 1.2500000000000000 0.0000000000000000 -7.9292956191928082E-002 -0.14424387895409618 3.1757371318298091
