3
Lattice="4.7243153133767404 0.0000000000000000 0.0000000000000000 0.0000000000000000 4.7243153133767404 0.0000000000000000 0.0000000000000000 0.0000000000000000 4.7243153133767404" Properties=species:S:1:pos:R:3:dipoles:R:3
Fe 0.0000000000000000 0.0000000000000000 0.0000000000000000 -6.5488025502629093E-003 -5.5835027960461098E-003 3.1799883549600785
Fe 2.1650635094610999 -1.2500000000000000 0.0000000000000000 -2.6383656719661604E-003 -3.4334814406511158E-003 3.1799970519218772
Fe 2.1650635094610999 1.2500000000000000 0.0000000000000000 -6.6299933544242389E-003 -1.2602337675521199E-003 3.1799928388282526
