3
Lattice="4.7243153133767404 0.0000000000000000 0.0000000000000000 0.0000000000000000 4.7243153133767404 0.0000000000000000 0.0000000000000000 0.0000000000000000 4.7243153133767404" Properties=species:S:1:pos:R:3:dipoles:R:3
Fe 0.0000000000000000 0.0000000000000000 0.0000000000000000 5.7411001744790482E-002 4.7914472768973780E-002 3.1791206614688199
Fe 2.1650635094610999 -1.2500000000000000 0.0000000000000000 -8.2860504910103716E-002 2.5524580646347380E-002 3.1788178042330340
Fe 2.1650635094610999 1.2500000000000000 0.0000000000000000 9.4668769582568271E-003 -8.4254960034528453E-002 3.1788695286139426
