3
Lattice="4.7243153133767404 0.0000000000000000 0.0000000000000000 0.0000000000000000 4.7243153133767404 0.0000000000000000 0.0000000000000000 0.0000000000000000 4.7243153133767404" Properties=species:S:1:pos:R:3:dipoles:R:3
Fe 0.0000000000000000 0.0000000000000000 0.0000000000000000 -4.9995597774437073E-003 -3.4538856752525599E-003 3.1799941941890051
Fe 2.1650635094610999 -1.2500000000000000 0.0000000000000000 -5.4788131675324644E-003 -3.1278071308233398E-003 3.1799937420424080
Fe 2.1650635094610999 1.2500000000000000 0.0000000000000000 -5.4655696770862473E-003 -3.7193724730291435E-003 3.1799931279511457
