3
Lattice="4.7243153133767404 0.0000000000000000 0.0000000000000000 0.0000000000000000 4.7243153133767404 0.0000000000000000 0.0000000000000000 0.0000000000000000 4.7243153133767404" Properties=species:S:1:pos:R:3:dipoles:R:3
Fe 0.0000000000000000 0.0000000000000000 0.0000000000000000 -4.8484315142649790E-003 -3.8398461053871418E-003 3.1799939855750909
Fe 2.1650635094610999 -1.2500000000000000 0.0000000000000000 -5.1946552153024489E-003 -2.7794346018806745E-003 3.1799945424954017
Fe 2.1650635094610999 1.2500000000000000 0.0000000000000000 -5.8730996316959704E-003 -3.6863032257192781E-003 3.1799924399075610
