3
Lattice="4.7243153133767404 0.0000000000000000 0.0000000000000000 0.0000000000000000 4.7243153133767404 0.0000000000000000 0.0000000000000000 0.0000000000000000 4.7243153133767404" Properties=species:S:1:pos:R:3:dipoles:R:3
Fe 0.0000000000000000 0.0000000000000000 0.0000000000000000 0.22478174896260231 -0.12590974272646319 3.1695456933162958
Fe 2.1650635094610999 -1.2500000000000000 0.0000000000000000 -1.5113085815815703E-002 0.26113910895862591 3.1692235579727503
Fe 2.1650635094610999 1.2500000000000000 0.0000000000000000 -0.22701958393469696 -0.14515198967396617 3.1685632403983686
