3
Lattice="4.7243153133767404 0.0000000000000000 0.0000000000000000 0.0000000000000000 4.7243153133767404 0.0000000000000000 0.0000000000000000 0.0000000000000000 4.7243153133767404" Properties=species:S:1:pos:R:3:dipoles:R:3
Fe 0.0000000000000000 0.0000000000000000 0.0000000000000000 -5.4279018990121266E-003 -3.3982636785547726E-003 3.1799935518307207
Fe 2.1650635094610999 -1.2500000000000000 0.0000000000000000 -5.4048668475470086E-003 -3.4015527854863673E-003 3.1799935875490437
Fe 2.1650635094610999 1.2500000000000000 0.0000000000000000 -5.4170465161201813E-003 -3.4162094582853094E-003 3.1799935511129611
