3
Lattice="4.7243153133767404 0.0000000000000000 0.0000000000000000 0.0000000000000000 4.7243153133767404 0.0000000000000000 0.0000000000000000 0.0000000000000000 4.7243153133767404" Properties=species:S:1:pos:R:3:dipoles:R:3
Fe 0.0000000000000000 0.0000000000000000 0.0000000000000000 -1.5489736747996866E-002 2.0513168978158040E-003 3.1799616130001467
Fe 2.1650635094610999 -1.2500000000000000 0.0000000000000000 -4.8412298015462268E-003 -1.5489794439338841E-002 3.1799585891584026
Fe 2.1650635094610999 1.2500000000000000 0.0000000000000000 4.6763418006596433E-003 3.0656217179452416E-003 3.1799950839255757
