3
Lattice="4.7243153133767404 0.0000000000000000 0.0000000000000000 0.0000000000000000 4.7243153133767404 0.0000000000000000 0.0000000000000000 0.0000000000000000 4.7243153133767404" Properties=species:S:1:pos:R:3:dipoles:R:3
Fe 0.0000000000000000 0.0000000000000000 0.0000000000000000 -5.4954303271715060E-003 -3.3719174053086606E-003 3.1799934638955705
Fe 2.1650635094610999 -1.2500000000000000 0.0000000000000000 -5.4709249423617870E-003 -3.3722727232307014E-003 3.1799935057727695
Fe 2.1650635094610999 1.2500000000000000 0.0000000000000000 -5.4772191970460463E-003 -3.3881562423907570E-003 3.1799934780541879
