3
Lattice="4.7243153133767404 0.0000000000000000 0.0000000000000000 0.0000000000000000 4.7243153133767404 0.0000000000000000 0.0000000000000000 0.0000000000000000 4.7243153133767404" Properties=species:S:1:pos:R:3:dipoles:R:3
Fe 0.0000000000000000 0.0000000000000000 0.0000000000000000 -5.4452619371341418E-003 -3.3920522597865707E-003 3.1799935287833390
Fe 2.1650635094610999 -1.2500000000000000 0.0000000000000000 -5.4194960283672627E-003 -3.3940725830073782E-003 3.1799935706435210
Fe 2.1650635094610999 1.2500000000000000 0.0000000000000000 -5.4288460577034577E-003 -3.4099606427201224E-003 3.1799935376976673
