3
Lattice="4.7243153133767404 0.0000000000000000 0.0000000000000000 0.0000000000000000 4.7243153133767404 0.0000000000000000 0.0000000000000000 0.0000000000000000 4.7243153133767404" Properties=species:S:1:pos:R:3:dipoles:R:3
Fe 0.0000000000000000 0.0000000000000000 0.0000000000000000 7.9763468105769342E-002 4.3706004349698166E-002 3.1786990380247619
Fe 2.1650635094610999 -1.2500000000000000 0.0000000000000000 -9.0540524399759986E-002 4.7401210791259155E-002 3.1783573648438259
Fe 2.1650635094610999 1.2500000000000000 0.0000000000000000 -5.3558110337239388E-003 -0.10193985978180976 3.1783611469239665
