3
Lattice="4.7243153133767404 0.0000000000000000 0.0000000000000000 0.0000000000000000 4.7243153133767404 0.0000000000000000 0.0000000000000000 0.0000000000000000 4.7243153133767404" Properties=species:S:1:pos:R:3:dipoles:R:3
Fe 0.0000000000000000 0.0000000000000000 0.0000000000000000 -5.4563199628601105E-003 -3.3894975750586379E-003 3.1799935125529206
Fe 2.1650635094610999 -1.2500000000000000 0.0000000000000000 -5.4312146495579562E-003 -3.3905017463200337E-003 3.1799935544597213
Fe 2.1650635094610999 1.2500000000000000 0.0000000000000000 -5.4402968210263093E-003 -3.4044740865746678E-003 3.1799935240070414
