3
Lattice="4.7243153133767404 0.0000000000000000 0.0000000000000000 0.0000000000000000 4.7243153133767404 0.0000000000000000 0.0000000000000000 0.0000000000000000 4.7243153133767404" Properties=species:S:1:pos:R:3:dipoles:R:3
Fe 0.0000000000000000 0.0000000000000000 0.0000000000000000 -5.4969627336840477E-003 -3.3711464893987847E-003 3.1799934620643588
Fe 2.1650635094610999 -1.2500000000000000 0.0000000000000000 -5.4726557721884520E-003 -3.3712830676548597E-003 3.1799935038438858
Fe 2.1650635094610999 1.2500000000000000 0.0000000000000000 -5.4786197336123034E-003 -3.3874387585890908E-003 3.1799934764059654
