3
Lattice="4.7243153133767404 0.0000000000000000 0.0000000000000000 0.0000000000000000 4.7243153133767404 0.0000000000000000 0.0000000000000000 0.0000000000000000 4.7243153133767404" Properties=species:S:1:pos:R:3:dipoles:R:3
Fe 0.0000000000000000 0.0000000000000000 0.0000000000000000 -5.3645991017927559E-003 -3.3717147835777500E-003 3.1799936875119563
Fe 2.1650635094610999 -1.2500000000000000 0.0000000000000000 -5.3726018865587451E-003 -3.4614455214762216E-003 3.1799935775947552
Fe 2.1650635094610999 1.2500000000000000 0.0000000000000000 -5.3056402772522979E-003 -3.4405621365983753E-003 3.1799937126845781
