3
Lattice="3.7794522507013926 0.0000000000000000 0.0000000000000000 0.0000000000000000 3.7794522507013926 0.0000000000000000 0.0000000000000000 0.0000000000000000 3.7794522507013926" Properties=species:S:1:pos:R:3:dipoles:R:3
Cr 0.0000000000000000 0.0000000000000000 0.0000000000000000 -2.5912580777380807 -3.1733759106666639E-016 -3.6852442507159598E-002
Cr 1.7320508075688801 -1.0000000000000000 0.0000000000000000 1.2956290389657925 -2.2440953230494833 -3.6852442511920776E-002
Cr 1.7320508075688801 1.0000000000000000 0.0000000000000000 1.2956290390118090 2.2440953230147462 -3.6852442510377406E-002
