2
Lattice="5.4235139797564988 0.0000000000000000 0.0000000000000000 0.0000000000000000 5.4235139797564988 0.0000000000000000 0.0000000000000000 0.0000000000000000 5.4235139797564988" Properties=species:S:1:pos:R:3:dipoles:R:3
Fe 0.0000000000000000 0.0000000000000000 0.0000000000000000 0.0000000000000000 0.0000000000000000 2.7119676079892869
Fe 1.4350000000000003 1.4350000000000003 1.4350000000000003 0.0000000000000000 0.0000000000000000 8.7435709976120574E-002
