5
Lattice="42.896783045460808 0.0000000000000000 0.0000000000000000 0.0000000000000000 42.896783045460808 0.0000000000000000 0.0000000000000000 0.0000000000000000 21.448391522730404" Properties=species:S:1:pos:R:3:dipoles:R:3
Fe 0.0000000000000000 0.0000000000000000 0.0000000000000000 1.6011877040037055 0.0000000000000000 2.7742944475666764
Fe 0.0000000000000000 0.0000000000000000 2.2700000000000000 1.5824653237528932 0.0000000000000000 2.7852767226649218
Fe 0.0000000000000000 0.0000000000000000 4.5400000000000000 1.5663346999250596 0.0000000000000000 2.7943784114544465
Fe 0.0000000000000000 0.0000000000000000 6.8100000000000005 1.5662178321192797 0.0000000000000000 2.7944494871677632
Fe 0.0000000000000000 0.0000000000000000 9.0800000000000001 1.5822884283565664 0.0000000000000000 2.7853830114121911
