5
Lattice="42.896783045460808 0.0000000000000000 0.0000000000000000 0.0000000000000000 42.896783045460808 0.0000000000000000 0.0000000000000000 0.0000000000000000 21.448391522730404" Properties=species:S:1:pos:R:3:dipoles:R:3
Fe 0.0000000000000000 0.0000000000000000 0.0000000000000000 1.6005846323683615 0.0000000000000000 2.7760532514692575
Fe 0.0000000000000000 0.0000000000000000 2.2700000000000000 1.5075256038761895 0.0000000000000000 2.8525256021744116
Fe 0.0000000000000000 0.0000000000000000 4.5400000000000000 1.3614513329559530 0.0000000000000000 2.9503128799115497
Fe 0.0000000000000000 0.0000000000000000 6.8100000000000005 1.3615461597124363 0.0000000000000000 2.9502931026945172
Fe 0.0000000000000000 0.0000000000000000 9.0800000000000001 1.5065706679682271 0.0000000000000000 2.8529779070049806
