5
Lattice="42.896783045460808 0.0000000000000000 0.0000000000000000 0.0000000000000000 42.896783045460808 0.0000000000000000 0.0000000000000000 0.0000000000000000 21.448391522730404" Properties=species:S:1:pos:R:3:dipoles:R:3
Fe 0.0000000000000000 0.0000000000000000 0.0000000000000000 1.6006401452638468 0.0000000000000000 2.7749222959454816
Fe 0.0000000000000000 0.0000000000000000 2.2700000000000000 1.5425512852435270 0.0000000000000000 2.8096796060043907
Fe 0.0000000000000000 0.0000000000000000 4.5400000000000000 1.4976428531151416 0.0000000000000000 2.8420673256573892
Fe 0.0000000000000000 0.0000000000000000 6.8100000000000005 1.4977081369440823 0.0000000000000000 2.8420520011726866
Fe 0.0000000000000000 0.0000000000000000 9.0800000000000001 1.5415696814977764 0.0000000000000000 2.8102058891737980
