5
Lattice="42.896783045460808 0.0000000000000000 0.0000000000000000 0.0000000000000000 42.896783045460808 0.0000000000000000 0.0000000000000000 0.0000000000000000 21.448391522730404" Properties=species:S:1:pos:R:3:dipoles:R:3
Fe 0.0000000000000000 0.0000000000000000 0.0000000000000000 1.5810212029523660 0.0000000000000000 2.7726182441317122
Fe 0.0000000000000000 0.0000000000000000 2.2700000000000000 0.65464496769448122 0.0000000000000000 3.1424797032768366
Fe 0.0000000000000000 0.0000000000000000 4.5400000000000000 0.21531448344491458 0.0000000000000000 3.2074486929380899
Fe 0.0000000000000000 0.0000000000000000 6.8100000000000005 0.21529257392016385 0.0000000000000000 3.2074427670072239
Fe 0.0000000000000000 0.0000000000000000 9.0800000000000001 0.65446322711425520 0.0000000000000000 3.1424958588651748
