5
Lattice="42.896783045460808 0.0000000000000000 0.0000000000000000 0.0000000000000000 42.896783045460808 0.0000000000000000 0.0000000000000000 0.0000000000000000 21.448391522730404" Properties=species:S:1:pos:R:3:dipoles:R:3
Fe 0.0000000000000000 0.0000000000000000 0.0000000000000000 1.5971422630173584 0.0000000000000000 2.7767572552147093
Fe 0.0000000000000000 0.0000000000000000 2.2700000000000000 1.3258556900766978 0.0000000000000000 2.9372968954288141
Fe 0.0000000000000000 0.0000000000000000 4.5400000000000000 0.96304005747415433 0.0000000000000000 3.0480085935039702
Fe 0.0000000000000000 0.0000000000000000 6.8100000000000005 0.96308675158448265 0.0000000000000000 3.0479879893429889
Fe 0.0000000000000000 0.0000000000000000 9.0800000000000001 1.3251858329702395 0.0000000000000000 2.9376029896366083
