5
Lattice="42.896783045460808 0.0000000000000000 0.0000000000000000 0.0000000000000000 42.896783045460808 0.0000000000000000 0.0000000000000000 0.0000000000000000 21.448391522730404" Properties=species:S:1:pos:R:3:dipoles:R:3
Fe 0.0000000000000000 0.0000000000000000 0.0000000000000000 1.5809618947477122 0.0000000000000000 2.7728362946436116
Fe 0.0000000000000000 0.0000000000000000 2.2700000000000000 0.64782805621682105 0.0000000000000000 3.1443920817632049
Fe 0.0000000000000000 0.0000000000000000 4.5400000000000000 0.18403128819330464 0.0000000000000000 3.2050121842190600
Fe 0.0000000000000000 0.0000000000000000 6.8100000000000005 0.18401243965165695 0.0000000000000000 3.2050062283113210
Fe 0.0000000000000000 0.0000000000000000 9.0800000000000001 0.64766661845257345 0.0000000000000000 3.1444080875513163
