5
Lattice="42.896783045460808 0.0000000000000000 0.0000000000000000 0.0000000000000000 42.896783045460808 0.0000000000000000 0.0000000000000000 0.0000000000000000 21.448391522730404" Properties=species:S:1:pos:R:3:dipoles:R:3
Fe 0.0000000000000000 0.0000000000000000 0.0000000000000000 1.6000998753894915 0.0000000000000000 2.7758917821717612
Fe 0.0000000000000000 0.0000000000000000 2.2700000000000000 1.4863097073679035 0.0000000000000000 2.8469757953206893
Fe 0.0000000000000000 0.0000000000000000 4.5400000000000000 1.3469727654903794 0.0000000000000000 2.9311624662440012
Fe 0.0000000000000000 0.0000000000000000 6.8100000000000005 1.3470703551334344 0.0000000000000000 2.9311422323587659
Fe 0.0000000000000000 0.0000000000000000 9.0800000000000001 1.4853676816855976 0.0000000000000000 2.8474411119456473
