5
Lattice="42.896783045460808 0.0000000000000000 0.0000000000000000 0.0000000000000000 42.896783045460808 0.0000000000000000 0.0000000000000000 0.0000000000000000 21.448391522730404" Properties=species:S:1:pos:R:3:dipoles:R:3
Fe 0.0000000000000000 0.0000000000000000 0.0000000000000000 1.5913718027074175 0.0000000000000000 2.7763601879112900
Fe 0.0000000000000000 0.0000000000000000 2.2700000000000000 1.0574003788037956 0.0000000000000000 3.0289861335142909
Fe 0.0000000000000000 0.0000000000000000 4.5400000000000000 0.45295386469649407 0.0000000000000000 3.1243041895821064
Fe 0.0000000000000000 0.0000000000000000 6.8100000000000005 0.45296119706225674 0.0000000000000000 3.1242840020447398
Fe 0.0000000000000000 0.0000000000000000 9.0800000000000001 1.0570832945703703 0.0000000000000000 3.0291506384202012
