5
Lattice="42.896783045460808 0.0000000000000000 0.0000000000000000 0.0000000000000000 42.896783045460808 0.0000000000000000 0.0000000000000000 0.0000000000000000 21.448391522730404" Properties=species:S:1:pos:R:3:dipoles:R:3
Fe 0.0000000000000000 0.0000000000000000 0.0000000000000000 1.5312071671580827 0.0000000000000000 2.7583479728459319
Fe 0.0000000000000000 0.0000000000000000 2.2700000000000000 7.4520054202398406E-002 0.0000000000000000 3.1740362944575402
Fe 0.0000000000000000 0.0000000000000000 4.5400000000000000 -1.5377335501630573E-002 -1.8831804701486841E-018 3.1756364983918366
Fe 0.0000000000000000 0.0000000000000000 6.8100000000000005 -1.5377335501628561E-002 -1.8831804701484375E-018 3.1756364983914209
Fe 0.0000000000000000 0.0000000000000000 9.0800000000000001 7.4520054202394811E-002 0.0000000000000000 3.1740362944573870
