5
Lattice="42.896783045460808 0.0000000000000000 0.0000000000000000 0.0000000000000000 42.896783045460808 0.0000000000000000 0.0000000000000000 0.0000000000000000 21.448391522730404" Properties=species:S:1:pos:R:3:dipoles:R:3
Fe 0.0000000000000000 0.0000000000000000 0.0000000000000000 1.6011973780611457 0.0000000000000000 2.7742838291589180
Fe 0.0000000000000000 0.0000000000000000 2.2700000000000000 1.5831379172363054 0.0000000000000000 2.7845580176664013
Fe 0.0000000000000000 0.0000000000000000 4.5400000000000000 1.5673631040578961 0.0000000000000000 2.7934449155442413
Fe 0.0000000000000000 0.0000000000000000 6.8100000000000005 1.5670786215062467 0.0000000000000000 2.7936031197974001
Fe 0.0000000000000000 0.0000000000000000 9.0800000000000001 1.5827057863469476 0.0000000000000000 2.7848022848072538
