5
Lattice="41.573974757715320 0.0000000000000000 0.0000000000000000 0.0000000000000000 41.573974757715320 0.0000000000000000 0.0000000000000000 0.0000000000000000 20.786987378857660" Properties=species:S:1:pos:R:3:dipoles:R:3
Fe 0.0000000000000000 0.0000000000000000 0.0000000000000000 -2.4035521561509125E-002 -0.68382804944451414 3.1055114703533429
Fe 0.0000000000000000 0.0000000000000000 2.2000000000000002 1.9833984003850300 0.10897111875763005 -2.4832752728255518
Fe 0.0000000000000000 0.0000000000000000 4.4000000000000004 -2.8910438927620077 0.72038753889272078 1.1114436575605491
Fe 0.0000000000000000 0.0000000000000000 6.5999999999999996 -1.7187788530549946 1.1518026305782552 2.4148602349792365
Fe 0.0000000000000000 0.0000000000000000 8.8000000000000007 2.6310946391276846 -0.57722897473238510 1.6901324535914202
