5
Lattice="41.573974757715320 0.0000000000000000 0.0000000000000000 0.0000000000000000 41.573974757715320 0.0000000000000000 0.0000000000000000 0.0000000000000000 20.786987378857660" Properties=species:S:1:pos:R:3:dipoles:R:3
Fe 0.0000000000000000 0.0000000000000000 0.0000000000000000 -2.3827813432529705 1.7961115352273433 -1.0994254969159312
Fe 0.0000000000000000 0.0000000000000000 2.2000000000000002 -0.30668735841974792 1.8125534980009186 -2.5948010869949476
Fe 0.0000000000000000 0.0000000000000000 4.4000000000000004 -0.69391774827377872 -0.62798846161325161 3.0391624916597078
Fe 0.0000000000000000 0.0000000000000000 6.5999999999999996 1.2961567118599739 -2.8543252426899732 -0.53404605348525014
Fe 0.0000000000000000 0.0000000000000000 8.8000000000000007 -0.56145985672873544 1.8890526575692564E-002 3.1299849803613822
