5
Lattice="41.573974757715320 0.0000000000000000 0.0000000000000000 0.0000000000000000 41.573974757715320 0.0000000000000000 0.0000000000000000 0.0000000000000000 20.786987378857660" Properties=species:S:1:pos:R:3:dipoles:R:3
Fe 0.0000000000000000 0.0000000000000000 0.0000000000000000 1.1977453049755664 1.6613814177839950 2.4326154585242268
Fe 0.0000000000000000 0.0000000000000000 2.2000000000000002 1.9577967489806356 0.25726354643622007 2.4926386335279163
Fe 0.0000000000000000 0.0000000000000000 4.4000000000000004 -1.9356711103100090 -0.31246879338688566 2.5035855499404329
Fe 0.0000000000000000 0.0000000000000000 6.5999999999999996 0.87327337896020940 -1.1666928578746165 -2.8264149343264835
Fe 0.0000000000000000 0.0000000000000000 8.8000000000000007 -2.0633757585458947 1.0945433599253678 2.1579748173434350
