5
Lattice="41.573974757715320 0.0000000000000000 0.0000000000000000 0.0000000000000000 41.573974757715320 0.0000000000000000 0.0000000000000000 0.0000000000000000 20.786987378857660" Properties=species:S:1:pos:R:3:dipoles:R:3
Fe 0.0000000000000000 0.0000000000000000 0.0000000000000000 0.46111154106058683 -3.1367087580625559 -0.24664613071034705
Fe 0.0000000000000000 0.0000000000000000 2.2000000000000002 -0.67697919060429113 -0.34208514168831722 3.0882158168309481
Fe 0.0000000000000000 0.0000000000000000 4.4000000000000004 -0.65315566911002776 -2.1833774376475197 2.2178031104408640
Fe 0.0000000000000000 0.0000000000000000 6.5999999999999996 0.48260015112033428 3.0181052264140642 -0.87780290295188057
Fe 0.0000000000000000 0.0000000000000000 8.8000000000000007 0.35453506107808480 2.7887365008713143 1.4864903696877352
