5
Lattice="41.573974757715320 0.0000000000000000 0.0000000000000000 0.0000000000000000 41.573974757715320 0.0000000000000000 0.0000000000000000 0.0000000000000000 20.786987378857660" Properties=species:S:1:pos:R:3:dipoles:R:3
Fe 0.0000000000000000 0.0000000000000000 0.0000000000000000 0.55826517453101765 -1.2130368161125193 2.8860494932799483
Fe 0.0000000000000000 0.0000000000000000 2.2000000000000002 1.2917103666931302 1.1966950008216954 2.6479813827868699
Fe 0.0000000000000000 0.0000000000000000 4.4000000000000004 -0.44864337557538203 -0.48423171744850674 3.1107296194573384
Fe 0.0000000000000000 0.0000000000000000 6.5999999999999996 -0.71519238763484927 -0.91900267505666244 2.9591103277687809
Fe 0.0000000000000000 0.0000000000000000 8.8000000000000007 0.65690883597902805 1.5469665326662245 2.6995861401376544
