5
Lattice="41.573974757715320 0.0000000000000000 0.0000000000000000 0.0000000000000000 41.573974757715320 0.0000000000000000 0.0000000000000000 0.0000000000000000 20.786987378857660" Properties=species:S:1:pos:R:3:dipoles:R:3
Fe 0.0000000000000000 0.0000000000000000 0.0000000000000000 -0.64183693963528077 0.56968556841099716 -3.0620097478721151
Fe 0.0000000000000000 0.0000000000000000 2.2000000000000002 -2.4169618779602255 0.27152106110382623 2.0486511645138705
Fe 0.0000000000000000 0.0000000000000000 4.4000000000000004 -0.50916725427580189 -2.3401801099446247 2.0920577812748804
Fe 0.0000000000000000 0.0000000000000000 6.5999999999999996 -0.66148056660352939 2.7579234036563922 1.4382982860207478
Fe 0.0000000000000000 0.0000000000000000 8.8000000000000007 1.9188319658949200 -2.1153604568106612 -1.3984756073745528
