5
Lattice="41.573974757715320 0.0000000000000000 0.0000000000000000 0.0000000000000000 41.573974757715320 0.0000000000000000 0.0000000000000000 0.0000000000000000 20.786987378857660" Properties=species:S:1:pos:R:3:dipoles:R:3
Fe 0.0000000000000000 0.0000000000000000 0.0000000000000000 1.0371439623252261 2.3447008347026035 1.8812523480801955
Fe 0.0000000000000000 0.0000000000000000 2.2000000000000002 2.0610361252827500 1.9639950930919445 1.4167756931110289
Fe 0.0000000000000000 0.0000000000000000 4.4000000000000004 -2.7112238617635116 -0.96033243017372572 1.3562546939866262
Fe 0.0000000000000000 0.0000000000000000 6.5999999999999996 1.3965139089489309 -2.7825054436638066 -0.64792928479384615
Fe 0.0000000000000000 0.0000000000000000 8.8000000000000007 -1.5990949099448015 0.64207657457463729 2.6726453452284167
