5
Lattice="41.573974757715320 0.0000000000000000 0.0000000000000000 0.0000000000000000 41.573974757715320 0.0000000000000000 0.0000000000000000 0.0000000000000000 20.786987378857660" Properties=species:S:1:pos:R:3:dipoles:R:3
Fe 0.0000000000000000 0.0000000000000000 0.0000000000000000 1.7731567946418378 -1.4391003070678805 2.2129856049718470
Fe 0.0000000000000000 0.0000000000000000 2.2000000000000002 -2.7380375026205259 0.82545301970843687 -1.3907472619055485
Fe 0.0000000000000000 0.0000000000000000 4.4000000000000004 1.6164968279615752 2.5798311468444974 -0.91859090947013178
Fe 0.0000000000000000 0.0000000000000000 6.5999999999999996 0.64685845911659612 -1.2518839064419180 2.8507474140409270
Fe 0.0000000000000000 0.0000000000000000 8.8000000000000007 -1.8262997899063251 0.32648736284805618 2.5827185443421121
