5
Lattice="41.573974757715320 0.0000000000000000 0.0000000000000000 0.0000000000000000 41.573974757715320 0.0000000000000000 0.0000000000000000 0.0000000000000000 20.786987378857660" Properties=species:S:1:pos:R:3:dipoles:R:3
Fe 0.0000000000000000 0.0000000000000000 0.0000000000000000 -0.18036664979349229 1.0309881220938876E-002 3.1748640251184739
Fe 0.0000000000000000 0.0000000000000000 2.2000000000000002 0.46739303123417963 0.55109966037980462 3.0968101198948239
Fe 0.0000000000000000 0.0000000000000000 4.4000000000000004 0.36435071977622419 -1.1000953136023337 2.9613238347044595
Fe 0.0000000000000000 0.0000000000000000 6.5999999999999996 -0.42015652446562590 1.5403522029042953 2.7501242855472654
Fe 0.0000000000000000 0.0000000000000000 8.8000000000000007 -2.8381949739622101 -0.24185578865819632 -1.4137026092032832
