5
Lattice="41.573974757715320 0.0000000000000000 0.0000000000000000 0.0000000000000000 41.573974757715320 0.0000000000000000 0.0000000000000000 0.0000000000000000 20.786987378857660" Properties=species:S:1:pos:R:3:dipoles:R:3
Fe 0.0000000000000000 0.0000000000000000 0.0000000000000000 -1.1305588197611802 -0.99686270086932993 2.8000895540456749
Fe 0.0000000000000000 0.0000000000000000 2.2000000000000002 1.9190357178489188 -0.17087541048145899 2.5299216406270140
Fe 0.0000000000000000 0.0000000000000000 4.4000000000000004 0.31922107452086068 0.67881367938670278 3.0902604897094403
Fe 0.0000000000000000 0.0000000000000000 6.5999999999999996 -1.5870240017501607 -1.0589962717086727 2.5440679461005034
Fe 0.0000000000000000 0.0000000000000000 8.8000000000000007 -1.5370606214916420 2.7690326331710753 0.28688485894760773
