5
Lattice="41.573974757715320 0.0000000000000000 0.0000000000000000 0.0000000000000000 41.573974757715320 0.0000000000000000 0.0000000000000000 0.0000000000000000 20.786987378857660" Properties=species:S:1:pos:R:3:dipoles:R:3
Fe 0.0000000000000000 0.0000000000000000 0.0000000000000000 -2.6320884964477411 -0.46782078973821484 -1.7221073879279944
Fe 0.0000000000000000 0.0000000000000000 2.2000000000000002 2.4626230421292639 1.9636597881282831 -0.43809586720488858
Fe 0.0000000000000000 0.0000000000000000 4.4000000000000004 -1.9001381375984683 0.45374438418843249 2.5091813589019929
Fe 0.0000000000000000 0.0000000000000000 6.5999999999999996 -1.4187458957619756 1.2603884431948078 2.5516624101788072
Fe 0.0000000000000000 0.0000000000000000 8.8000000000000007 1.4963061151345258 -2.5448784897369943 -1.1819735539702176
