5
Lattice="41.573974757715320 0.0000000000000000 0.0000000000000000 0.0000000000000000 41.573974757715320 0.0000000000000000 0.0000000000000000 0.0000000000000000 20.786987378857660" Properties=species:S:1:pos:R:3:dipoles:R:3
Fe 0.0000000000000000 0.0000000000000000 0.0000000000000000 2.9689398702386098 0.93543509309945760 0.65019784181858498
Fe 0.0000000000000000 0.0000000000000000 2.2000000000000002 -2.1955592039214000 1.9344120305665673 1.2449778624840517
Fe 0.0000000000000000 0.0000000000000000 4.4000000000000004 -1.6073360637314411 -1.3056134817240841 2.4133470978225700
Fe 0.0000000000000000 0.0000000000000000 6.5999999999999996 0.65024464863225651 -1.4126840495550239 2.7737890462430506
Fe 0.0000000000000000 0.0000000000000000 8.8000000000000007 -0.60474599373851157 2.9966906591488653 0.87551549182590183
