5
Lattice="41.573974757715320 0.0000000000000000 0.0000000000000000 0.0000000000000000 41.573974757715320 0.0000000000000000 0.0000000000000000 0.0000000000000000 20.786987378857660" Properties=species:S:1:pos:R:3:dipoles:R:3
Fe 0.0000000000000000 0.0000000000000000 0.0000000000000000 -0.25544015863414032 -0.71577123002530285 3.0878506880393402
Fe 0.0000000000000000 0.0000000000000000 2.2000000000000002 1.2288802019179921 0.53710599505986445 2.8833609901302251
Fe 0.0000000000000000 0.0000000000000000 4.4000000000000004 -0.35674037186641744 -0.30838739212756389 3.1448423686183964
Fe 0.0000000000000000 0.0000000000000000 6.5999999999999996 -0.36832006492537533 0.41736749878889173 3.1309015795339330
Fe 0.0000000000000000 0.0000000000000000 8.8000000000000007 -2.6747802269812606 0.67839826136194736 -1.5804197342260577
