5
Lattice="41.573974757715320 0.0000000000000000 0.0000000000000000 0.0000000000000000 41.573974757715320 0.0000000000000000 0.0000000000000000 0.0000000000000000 20.786987378857660" Properties=species:S:1:pos:R:3:dipoles:R:3
Fe 0.0000000000000000 0.0000000000000000 0.0000000000000000 -2.9313113398692194 0.39872210466289110 1.1665481181705744
Fe 0.0000000000000000 0.0000000000000000 2.2000000000000002 0.56678153466296022 -0.80768912163897255 3.0230443223266126
Fe 0.0000000000000000 0.0000000000000000 4.4000000000000004 1.0445496853632288 1.5958237766317822 2.5445357982831096
Fe 0.0000000000000000 0.0000000000000000 6.5999999999999996 -4.1585999009435652E-002 -1.1135745454233155 2.9783590006027891
Fe 0.0000000000000000 0.0000000000000000 8.8000000000000007 -0.32582540770964408 2.8775994929963926 -1.3136433920960975
