13
Lattice="1.8897261253506963 0.0000000000000000 0.0000000000000000 0.0000000000000000 1.8897261253506963 0.0000000000000000 0.0000000000000000 0.0000000000000000 1.8897261253506963" Properties=species:S:1:pos:R:3:dipoles:R:3
Fe 0.0000000000000000 0.0000000000000000 0.0000000000000000 0.0000000000000000 0.0000000000000000 1.7751873586307341
Fe 0.0000000000000000 1.7575088999999999 1.7575088999999999 0.0000000000000000 0.0000000000000000 2.6794572846717140
Fe 0.0000000000000000 -1.7575088999999999 1.7575088999999999 0.0000000000000000 0.0000000000000000 2.6794545404104566
Fe 0.0000000000000000 1.7575088999999999 -1.7575088999999999 0.0000000000000000 0.0000000000000000 2.6794573302599298
Fe 0.0000000000000000 -1.7575088999999999 -1.7575088999999999 0.0000000000000000 0.0000000000000000 2.6794637932163541
Fe 1.7575088999999999 0.0000000000000000 1.7575088999999999 0.0000000000000000 0.0000000000000000 2.6794613726819962
Fe -1.7575088999999999 0.0000000000000000 1.7575088999999999 0.0000000000000000 0.0000000000000000 2.6794630394687999
Fe 1.7575088999999999 0.0000000000000000 -1.7575088999999999 0.0000000000000000 0.0000000000000000 2.6794673144296932
Fe -1.7575088999999999 0.0000000000000000 -1.7575088999999999 0.0000000000000000 0.0000000000000000 2.6794428351683433
Fe 1.7575088999999999 1.7575088999999999 0.0000000000000000 0.0000000000000000 0.0000000000000000 2.6794528405287017
Fe -1.7575088999999999 1.7575088999999999 0.0000000000000000 0.0000000000000000 0.0000000000000000 2.6794674775241227
Fe 1.7575088999999999 -1.7575088999999999 0.0000000000000000 0.0000000000000000 0.0000000000000000 2.6794544012024271
Fe -1.7575088999999999 -1.7575088999999999 0.0000000000000000 0.0000000000000000 0.0000000000000000 2.6794561429428025
