13
Lattice="1.8897261253506963 0.0000000000000000 0.0000000000000000 0.0000000000000000 1.8897261253506963 0.0000000000000000 0.0000000000000000 0.0000000000000000 1.8897261253506963" Properties=species:S:1:pos:R:3:dipoles:R:3
Fe 0.0000000000000000 0.0000000000000000 0.0000000000000000 0.0000000000000000 0.0000000000000000 1.4241793515753898
Fe 0.0000000000000000 1.7575088999999999 1.7575088999999999 0.0000000000000000 0.0000000000000000 2.6962696823589321
Fe 0.0000000000000000 -1.7575088999999999 1.7575088999999999 0.0000000000000000 0.0000000000000000 2.6962696823578840
Fe 0.0000000000000000 1.7575088999999999 -1.7575088999999999 0.0000000000000000 0.0000000000000000 2.6962696823578014
Fe 0.0000000000000000 -1.7575088999999999 -1.7575088999999999 0.0000000000000000 0.0000000000000000 2.6962696823582268
Fe 1.7575088999999999 0.0000000000000000 1.7575088999999999 0.0000000000000000 0.0000000000000000 2.6962696823568644
Fe -1.7575088999999999 0.0000000000000000 1.7575088999999999 0.0000000000000000 0.0000000000000000 2.6962696823590910
Fe 1.7575088999999999 0.0000000000000000 -1.7575088999999999 0.0000000000000000 0.0000000000000000 2.6962696823589654
Fe -1.7575088999999999 0.0000000000000000 -1.7575088999999999 0.0000000000000000 0.0000000000000000 2.6962696823572223
Fe 1.7575088999999999 1.7575088999999999 0.0000000000000000 0.0000000000000000 0.0000000000000000 2.6962696823566019
Fe -1.7575088999999999 1.7575088999999999 0.0000000000000000 0.0000000000000000 0.0000000000000000 2.6962696823571379
Fe 1.7575088999999999 -1.7575088999999999 0.0000000000000000 0.0000000000000000 0.0000000000000000 2.6962696823576433
Fe -1.7575088999999999 -1.7575088999999999 0.0000000000000000 0.0000000000000000 0.0000000000000000 2.6962696823559775
