5
Lattice="42.896783045460808 0.0000000000000000 0.0000000000000000 0.0000000000000000 42.896783045460808 0.0000000000000000 0.0000000000000000 0.0000000000000000 21.448391522730404" Properties=species:S:1:pos:R:3:dipoles:R:3
Fe 0.0000000000000000 0.0000000000000000 0.0000000000000000 3.6809726851165076E-016 0.0000000000000000 -3.0057422986605968
Fe 0.0000000000000000 0.0000000000000000 2.2700000000000000 0.0000000000000000 0.0000000000000000 2.9253857817952427
Fe 0.0000000000000000 0.0000000000000000 4.5400000000000000 0.0000000000000000 0.0000000000000000 3.1521564604711951
Fe 0.0000000000000000 0.0000000000000000 6.8100000000000005 0.0000000000000000 0.0000000000000000 3.1521630615699134
Fe 0.0000000000000000 0.0000000000000000 9.0800000000000001 0.0000000000000000 0.0000000000000000 2.9253118193133889
