5
Lattice="42.896783045460808 0.0000000000000000 0.0000000000000000 0.0000000000000000 42.896783045460808 0.0000000000000000 0.0000000000000000 0.0000000000000000 21.448391522730404" Properties=species:S:1:pos:R:3:dipoles:R:3
Fe 0.0000000000000000 0.0000000000000000 0.0000000000000000 3.6959110059893047E-016 0.0000000000000000 -3.0179403633460211
Fe 0.0000000000000000 0.0000000000000000 2.2700000000000000 0.0000000000000000 0.0000000000000000 2.9774553824136074
Fe 0.0000000000000000 0.0000000000000000 4.5400000000000000 0.0000000000000000 0.0000000000000000 3.1425017345997723
Fe 0.0000000000000000 0.0000000000000000 6.8100000000000005 0.0000000000000000 0.0000000000000000 3.1425017345998176
Fe 0.0000000000000000 0.0000000000000000 9.0800000000000001 0.0000000000000000 0.0000000000000000 2.9774553824125314
